<?xml version="1.0" encoding="UTF-8"?>

<!-- generated on 2025-05-13 04:13:28 by Eclipse SUMO netconvert Version 1.22.0
<netconvertConfiguration xmlns:xsi="http://www.w3.org/2001/XMLSchema-instance" xsi:noNamespaceSchemaLocation="http://sumo.dlr.de/xsd/netconvertConfiguration.xsd">

    <input>
        <osm-files value="C:\Users\LAPTOP\Documents\Code\FastAPI\AI-Based-Web-System-for-Adaptive-Traffic-Signal-Control-Using-Deep-Reinforcement-Learning\model\src\model\data\map\region_1.osm"/>
    </input>

    <output>
        <output-file value="C:\Users\LAPTOP\Documents\Code\FastAPI\AI-Based-Web-System-for-Adaptive-Traffic-Signal-Control-Using-Deep-Reinforcement-Learning\model\src\model\sumo_files\network\region_1.net.xml"/>
    </output>

    <projection>
        <proj.utm value="true"/>
    </projection>

    <processing>
        <geometry.remove value="true"/>
        <roundabouts.guess value="true"/>
        <lefthand value="false"/>
        <edges.join value="true"/>
    </processing>

    <tls_building>
        <tls.discard-simple value="false"/>
        <tls.guess value="true"/>
        <tls.join value="true"/>
        <tls.guess-signals value="true"/>
    </tls_building>

    <ramp_guessing>
        <ramps.guess value="true"/>
    </ramp_guessing>

    <edge_removal>
        <remove-edges.isolated value="true"/>
    </edge_removal>

    <junctions>
        <no-turnarounds value="true"/>
        <junctions.join value="true"/>
    </junctions>

    <pedestrian>
        <sidewalks.guess value="true"/>
        <crossings.guess value="true"/>
    </pedestrian>

    <report>
        <verbose value="true"/>
    </report>

</netconvertConfiguration>
-->

<net version="1.20" junctionCornerDetail="5" walkingareas="true" limitTurnSpeed="5.50" xmlns:xsi="http://www.w3.org/2001/XMLSchema-instance" xsi:noNamespaceSchemaLocation="http://sumo.dlr.de/xsd/net_file.xsd">

    <location netOffset="-684826.81,-1192114.63" convBoundary="0.00,0.00,837.47,799.25" origBoundary="106.690425,10.779527,106.698076,10.786761" projParameter="+proj=utm +zone=48 +ellps=WGS84 +datum=WGS84 +units=m +no_defs"/>

    <type id="highway.primary" priority="12" numLanes="2" speed="27.78" disallow="tram rail_urban rail rail_electric rail_fast ship container cable_car subway aircraft wheelchair scooter drone" oneway="0"/>
    <type id="highway.residential" priority="3" numLanes="1" speed="13.89" disallow="tram rail_urban rail rail_electric rail_fast ship container cable_car subway aircraft wheelchair scooter drone" oneway="0"/>
    <type id="highway.secondary" priority="11" numLanes="1" speed="27.78" disallow="tram rail_urban rail rail_electric rail_fast ship container cable_car subway aircraft wheelchair scooter drone" oneway="0"/>
    <type id="highway.tertiary" priority="10" numLanes="1" speed="22.22" disallow="tram rail_urban rail rail_electric rail_fast ship container cable_car subway aircraft wheelchair scooter drone" oneway="0"/>

    <edge id=":10291112014_0" function="internal">
        <lane id=":10291112014_0_0" index="0" disallow="pedestrian tram rail_urban rail rail_electric rail_fast ship container cable_car subway aircraft wheelchair scooter drone" speed="7.59" length="12.21" shape="377.86,795.09 379.83,796.29 382.29,796.25 385.22,794.96 388.63,792.43"/>
    </edge>
    <edge id=":10291112014_w0" function="walkingarea">
        <lane id=":10291112014_w0_0" index="0" allow="pedestrian" speed="2.78" length="4.44" width="3.20" shape="387.58,791.22 386.28,789.71 383.65,789.58 381.34,791.78 379.02,793.99 376.70,796.20"/>
    </edge>
    <edge id=":12363632350_0" function="internal">
        <lane id=":12363632350_0_0" index="0" disallow="tram rail_urban rail rail_electric rail_fast ship container cable_car subway aircraft wheelchair scooter drone" speed="10.94" length="7.94" shape="343.45,782.36 341.90,783.77 341.16,785.04 340.74,786.54 340.17,788.65"/>
        <lane id=":12363632350_0_1" index="1" disallow="tram rail_urban rail rail_electric rail_fast ship container cable_car subway aircraft wheelchair scooter drone" speed="11.81" length="7.94" shape="343.45,782.36 341.25,783.69 339.53,784.48 338.18,785.54 337.12,787.68"/>
    </edge>
    <edge id=":12363632350_2" function="internal">
        <lane id=":12363632350_2_0" index="0" disallow="tram rail_urban rail rail_electric rail_fast ship container cable_car subway aircraft wheelchair scooter drone" speed="9.95" length="7.18" shape="334.68,780.93 336.82,781.09 338.36,781.19 339.77,780.89 341.51,779.81"/>
    </edge>
    <edge id=":12363632350_3" function="internal">
        <lane id=":12363632350_3_0" index="0" disallow="tram rail_urban rail rail_electric rail_fast ship container cable_car subway aircraft wheelchair scooter drone" speed="4.80" length="2.08" shape="334.60,784.13 336.12,784.38 336.55,784.71"/>
    </edge>
    <edge id=":12363632350_4" function="internal">
        <lane id=":12363632350_4_0" index="0" disallow="tram rail_urban rail rail_electric rail_fast ship container cable_car subway aircraft wheelchair scooter drone" speed="4.80" length="3.29" shape="336.55,784.71 337.04,785.06 337.38,786.16 337.12,787.68"/>
    </edge>
    <edge id=":12363632350_w0" function="walkingarea">
        <lane id=":12363632350_w0_0" index="0" allow="pedestrian" speed="2.78" length="7.42" width="6.40" shape="344.43,783.63 340.54,778.54 338.65,779.55 337.86,779.63 337.02,779.55 336.01,779.42 334.73,779.33 334.55,785.73 335.34,785.91 335.57,786.11 335.69,786.40 335.70,786.76 335.60,787.19 341.70,789.13 342.28,786.82 342.50,785.98 342.84,785.23 343.44,784.48"/>
    </edge>
    <edge id=":12363632353_w0" function="walkingarea">
        <lane id=":12363632353_w0_0" index="0" allow="pedestrian" speed="2.78" length="0.10" width="3.20" shape="328.57,801.81 324.73,796.69"/>
    </edge>
    <edge id=":12363632355_w0" function="walkingarea">
        <lane id=":12363632355_w0_0" index="0" allow="pedestrian" speed="2.78" length="0.10" width="3.20" shape="321.38,794.50 317.42,789.47"/>
    </edge>
    <edge id=":12447084681_0" function="internal">
        <lane id=":12447084681_0_0" index="0" disallow="tram rail_urban rail rail_electric rail_fast ship container cable_car subway aircraft wheelchair scooter drone" speed="27.78" length="0.34" shape="415.92,725.97 415.83,726.02 415.76,726.05 415.70,726.07 415.63,726.14"/>
    </edge>
    <edge id=":12447084681_1" function="internal">
        <lane id=":12447084681_1_0" index="0" disallow="tram rail_urban rail rail_electric rail_fast ship container cable_car subway aircraft wheelchair scooter drone" speed="27.78" length="0.15" shape="413.92,723.66 413.86,723.52"/>
    </edge>
    <edge id=":12447084681_w0" function="walkingarea">
        <lane id=":12447084681_w0_0" index="0" allow="pedestrian" speed="2.78" length="2.16" width="6.40" shape="416.95,727.19 412.83,722.30 413.49,722.11 414.34,725.20 416.92,727.09"/>
    </edge>
    <edge id=":12447084682_0" function="internal">
        <lane id=":12447084682_0_0" index="0" disallow="tram rail_urban rail rail_electric rail_fast ship container cable_car subway aircraft wheelchair scooter drone" speed="27.78" length="9.09" shape="379.25,758.74 372.19,763.48"/>
        <lane id=":12447084682_0_1" index="1" disallow="tram rail_urban rail rail_electric rail_fast ship container cable_car subway aircraft wheelchair scooter drone" speed="27.78" length="9.09" shape="379.25,758.74 376.77,759.91 374.65,759.85 372.54,759.81 370.12,761.04"/>
    </edge>
    <edge id=":12447084682_2" function="internal">
        <lane id=":12447084682_2_0" index="0" disallow="tram rail_urban rail rail_electric rail_fast ship container cable_car subway aircraft wheelchair scooter drone" speed="15.47" length="2.06" shape="365.98,756.16 367.35,757.70"/>
    </edge>
    <edge id=":12447084682_w0" function="walkingarea">
        <lane id=":12447084682_w0_0" index="0" allow="pedestrian" speed="2.78" length="8.86" width="12.80" shape="379.80,760.34 378.70,757.13 376.23,758.78 373.50,760.11 370.95,760.93 369.01,761.07 368.11,760.34 368.71,758.55 365.99,756.86 364.95,754.94 373.23,764.70 375.58,762.99 376.48,762.49 377.39,762.00 378.45,761.34"/>
    </edge>
    <edge id=":12715785163_w0" function="walkingarea">
        <lane id=":12715785163_w0_0" index="0" allow="pedestrian" speed="2.78" length="0.10" width="3.20" shape="493.68,3.21 500.82,-3.21"/>
    </edge>
    <edge id=":2036141672_w0" function="walkingarea">
        <lane id=":2036141672_w0_0" index="0" allow="pedestrian" speed="2.78" length="0.10" width="3.20" shape="19.46,440.95 17.65,434.81"/>
    </edge>
    <edge id=":2036596690_0" function="internal">
        <lane id=":2036596690_0_0" index="0" disallow="tram rail_urban rail rail_electric rail_fast ship container cable_car subway aircraft wheelchair scooter drone" speed="6.59" length="7.73" shape="638.14,387.66 636.52,386.36 634.81,385.77 633.02,385.87 631.14,386.68"/>
    </edge>
    <edge id=":2036596690_1" function="internal">
        <lane id=":2036596690_1_0" index="0" disallow="tram rail_urban rail rail_electric rail_fast ship container cable_car subway aircraft wheelchair scooter drone" speed="19.56" length="11.45" shape="639.33,378.87 637.46,381.47 635.78,383.36 633.83,384.95 631.14,386.68"/>
    </edge>
    <edge id=":2036596690_w0" function="walkingarea">
        <lane id=":2036596690_w0_0" index="0" allow="pedestrian" speed="2.78" length="9.09" width="3.20" shape="637.11,388.90 641.23,383.95 640.28,382.56 640.09,381.86 640.09,381.16 640.27,380.47 640.65,379.77 638.01,377.97 636.72,379.85 635.69,381.21 634.74,382.26 633.67,383.16 632.26,384.12 630.31,385.31 631.96,388.05 633.76,387.41 634.62,387.44 635.47,387.69 636.30,388.18"/>
    </edge>
    <edge id=":2664205599_0" function="internal">
        <lane id=":2664205599_0_0" index="0" disallow="tram rail_urban rail rail_electric rail_fast ship container cable_car subway aircraft wheelchair scooter drone" speed="27.78" length="16.72" shape="499.18,-2.64 510.35,9.78"/>
        <lane id=":2664205599_0_1" index="1" disallow="tram rail_urban rail rail_electric rail_fast ship container cable_car subway aircraft wheelchair scooter drone" speed="27.78" length="16.72" shape="496.80,-0.51 507.98,11.92"/>
        <lane id=":2664205599_0_2" index="2" disallow="tram rail_urban rail rail_electric rail_fast ship container cable_car subway aircraft wheelchair scooter drone" speed="27.78" length="16.72" shape="494.42,1.63 505.60,14.07"/>
    </edge>
    <edge id=":2664205599_3" function="internal">
        <lane id=":2664205599_3_0" index="0" disallow="tram rail_urban rail rail_electric rail_fast ship container cable_car subway aircraft wheelchair scooter drone" speed="9.23" length="19.48" shape="493.36,9.03 497.75,5.98 502.05,5.09 506.25,6.36 510.35,9.78"/>
        <lane id=":2664205599_3_1" index="1" disallow="tram rail_urban rail rail_electric rail_fast ship container cable_car subway aircraft wheelchair scooter drone" speed="7.97" length="14.25" shape="495.53,11.37 498.75,9.14 501.90,8.49 504.97,9.42 507.98,11.92"/>
        <lane id=":2664205599_3_2" index="2" disallow="tram rail_urban rail rail_electric rail_fast ship container cable_car subway aircraft wheelchair scooter drone" speed="6.47" length="9.03" shape="497.71,13.71 499.75,12.30 501.74,11.89 503.69,12.47 505.60,14.07"/>
    </edge>
    <edge id=":2664205599_w0" function="walkingarea">
        <lane id=":2664205599_w0_0" index="0" allow="pedestrian" speed="2.78" length="15.59" width="3.20" shape="504.41,15.14 511.54,8.71 499.78,-4.37 492.64,2.05 492.27,7.86 498.80,14.89 500.73,13.70 501.67,13.59 502.60,13.79 503.51,14.30"/>
    </edge>
    <edge id=":411918058_0" function="internal">
        <lane id=":411918058_0_0" index="0" disallow="tram rail_urban rail rail_electric rail_fast ship container cable_car subway aircraft wheelchair scooter drone" speed="6.51" length="8.73" shape="569.88,321.22 571.30,319.31 571.79,317.38 571.36,315.44 570.00,313.49"/>
        <lane id=":411918058_0_1" index="1" disallow="tram rail_urban rail rail_electric rail_fast ship container cable_car subway aircraft wheelchair scooter drone" speed="7.33" length="11.35" shape="569.88,321.22 572.29,318.31 573.50,315.69 573.52,313.36 572.35,311.32"/>
        <lane id=":411918058_0_2" index="2" disallow="tram rail_urban rail rail_electric rail_fast ship container cable_car subway aircraft wheelchair scooter drone" speed="8.11" length="14.13" shape="569.88,321.22 573.28,317.32 575.21,314.01 575.69,311.28 574.70,309.15"/>
    </edge>
    <edge id=":411918058_3" function="internal">
        <lane id=":411918058_3_0" index="0" disallow="tram rail_urban rail rail_electric rail_fast ship container cable_car subway aircraft wheelchair scooter drone" speed="27.78" length="16.79" shape="569.88,321.22 572.82,318.47 576.21,315.71 579.75,313.15 583.17,311.02"/>
    </edge>
    <edge id=":411918058_w0" function="walkingarea">
        <lane id=":411918058_w0_0" index="0" allow="pedestrian" speed="2.78" length="12.63" width="3.20" shape="583.95,312.42 582.38,309.63 580.19,310.28 579.10,310.17 578.02,309.76 576.94,309.06 575.87,308.06 568.82,314.58 569.97,316.43 570.11,317.35 569.94,318.27 569.49,319.19 568.74,320.10 571.02,322.35 573.47,319.87 575.34,318.08 576.97,316.70 578.71,315.48 580.93,314.14"/>
    </edge>
    <edge id=":411918508_w0" function="walkingarea">
        <lane id=":411918508_w0_0" index="0" allow="pedestrian" speed="2.78" length="3.20" width="6.40" shape="232.76,685.88 230.61,683.51 234.91,688.25 232.76,685.88"/>
    </edge>
    <edge id=":411918509_w0" function="walkingarea">
        <lane id=":411918509_w0_0" index="0" allow="pedestrian" speed="2.78" length="8.40" width="2.00" shape="287.20,739.03 285.93,737.48 292.50,745.54 291.24,743.99"/>
    </edge>
    <edge id=":411918557_w0" function="walkingarea">
        <lane id=":411918557_w0_0" index="0" allow="pedestrian" speed="2.78" length="8.40" width="2.00" shape="160.50,383.63 158.99,384.94 166.82,378.09 165.31,379.41"/>
    </edge>
    <edge id=":411918558_0" function="internal">
        <lane id=":411918558_0_0" index="0" disallow="tram rail_urban rail rail_electric rail_fast ship container cable_car subway aircraft wheelchair scooter drone" speed="27.78" length="13.37" shape="214.79,461.20 204.91,470.18"/>
        <lane id=":411918558_0_1" index="1" disallow="tram rail_urban rail rail_electric rail_fast ship container cable_car subway aircraft wheelchair scooter drone" speed="27.78" length="13.37" shape="212.65,458.82 202.74,467.82"/>
    </edge>
    <edge id=":411918558_2" function="internal">
        <lane id=":411918558_2_0" index="0" disallow="pedestrian tram rail_urban rail rail_electric rail_fast ship container cable_car subway aircraft wheelchair scooter drone" speed="6.67" length="9.61" shape="212.65,458.82 209.82,461.11 207.49,462.40 205.68,462.70 204.38,462.01"/>
    </edge>
    <edge id=":411918558_3" function="internal">
        <lane id=":411918558_3_0" index="0" disallow="pedestrian tram rail_urban rail rail_electric rail_fast ship container cable_car subway aircraft wheelchair scooter drone" speed="6.73" length="9.60" shape="206.77,459.89 207.30,461.27 206.80,463.05 205.28,465.23 202.74,467.82"/>
    </edge>
    <edge id=":411918558_w0" function="walkingarea">
        <lane id=":411918558_w0_0" index="0" allow="pedestrian" speed="2.78" length="10.11" width="3.20" shape="203.18,463.07 201.68,464.40 201.66,466.64 203.83,469.00 205.99,471.36 215.86,462.38 213.72,460.01 211.58,457.63 209.47,457.51 207.97,458.83"/>
    </edge>
    <edge id=":411918559_w0" function="walkingarea">
        <lane id=":411918559_w0_0" index="0" allow="pedestrian" speed="2.78" length="8.40" width="2.00" shape="170.09,415.96 171.59,414.64 163.79,421.52 165.29,420.20"/>
    </edge>
    <edge id=":411918560_0" function="internal">
        <lane id=":411918560_0_0" index="0" disallow="pedestrian tram rail_urban rail rail_electric rail_fast ship container cable_car subway aircraft wheelchair scooter drone" speed="7.33" length="12.01" shape="99.25,386.29 97.66,383.88 97.41,381.35 98.52,378.70 100.97,375.92"/>
        <lane id=":411918560_0_1" index="1" disallow="pedestrian tram rail_urban rail rail_electric rail_fast ship container cable_car subway aircraft wheelchair scooter drone" speed="6.65" length="9.70" shape="99.25,386.29 98.63,384.89 99.07,383.10 100.57,380.89 103.13,378.29"/>
    </edge>
    <edge id=":411918560_2" function="internal">
        <lane id=":411918560_2_0" index="0" disallow="tram rail_urban rail rail_electric rail_fast ship container cable_car subway aircraft wheelchair scooter drone" speed="27.78" length="13.32" shape="88.93,382.37 98.82,373.55"/>
        <lane id=":411918560_2_1" index="1" disallow="tram rail_urban rail rail_electric rail_fast ship container cable_car subway aircraft wheelchair scooter drone" speed="27.78" length="13.32" shape="91.04,384.78 100.97,375.92"/>
        <lane id=":411918560_2_2" index="2" disallow="tram rail_urban rail rail_electric rail_fast ship container cable_car subway aircraft wheelchair scooter drone" speed="27.78" length="13.32" shape="93.14,387.19 103.13,378.29"/>
    </edge>
    <edge id=":411918560_5" function="internal">
        <lane id=":411918560_5_0" index="0" disallow="pedestrian tram rail_urban rail rail_electric rail_fast ship container cable_car subway aircraft wheelchair scooter drone" speed="6.83" length="9.67" shape="93.14,387.19 95.99,384.96 98.34,383.70 100.19,383.40 101.55,384.06"/>
    </edge>
    <edge id=":411918560_w0" function="walkingarea">
        <lane id=":411918560_w0_0" index="0" allow="pedestrian" speed="2.78" length="11.80" width="3.20" shape="102.70,382.95 104.14,381.56 104.20,379.47 102.05,377.10 99.90,374.73 97.75,372.36 87.88,381.16 89.98,383.57 92.09,385.98 94.19,388.39 96.67,388.79 98.10,387.40"/>
    </edge>
    <edge id=":411918562_w0" function="walkingarea">
        <lane id=":411918562_w0_0" index="0" allow="pedestrian" speed="2.78" length="8.40" width="2.00" shape="130.94,421.28 129.50,422.67 136.97,415.43 135.53,416.83"/>
    </edge>
    <edge id=":411918611_w0" function="walkingarea">
        <lane id=":411918611_w0_0" index="0" allow="pedestrian" speed="2.78" length="8.40" width="2.00" shape="319.67,440.30 318.19,441.65 325.88,434.65 324.40,435.99"/>
    </edge>
    <edge id=":411918613_0" function="internal">
        <lane id=":411918613_0_0" index="0" disallow="pedestrian tram rail_urban rail rail_electric rail_fast ship container cable_car subway aircraft wheelchair scooter drone" speed="5.98" length="7.50" shape="286.22,401.19 284.89,400.25 283.36,400.13 281.61,400.82 279.66,402.32"/>
    </edge>
    <edge id=":411918613_1" function="internal">
        <lane id=":411918613_1_0" index="0" disallow="pedestrian tram rail_urban rail rail_electric rail_fast ship container cable_car subway aircraft wheelchair scooter drone" speed="6.04" length="7.55" shape="290.18,392.51 288.56,394.35 287.75,396.05 287.76,397.61 288.59,399.03"/>
    </edge>
    <edge id=":411918613_2" function="internal">
        <lane id=":411918613_2_0" index="0" disallow="tram rail_urban rail rail_electric rail_fast ship container cable_car subway aircraft wheelchair scooter drone" speed="27.78" length="14.38" shape="290.18,392.51 279.66,402.32"/>
        <lane id=":411918613_2_1" index="1" disallow="tram rail_urban rail rail_electric rail_fast ship container cable_car subway aircraft wheelchair scooter drone" speed="27.78" length="14.38" shape="287.99,390.17 277.48,399.97"/>
    </edge>
    <edge id=":411918613_w0" function="walkingarea">
        <lane id=":411918613_w0_0" index="0" allow="pedestrian" speed="2.78" length="9.37" width="3.20" shape="289.77,397.96 291.25,396.61 291.28,393.67 289.09,391.34 286.90,389.01 276.40,398.79 278.57,401.14 280.74,403.49 283.56,403.61 285.04,402.27"/>
    </edge>
    <edge id=":411918898_0" function="internal">
        <lane id=":411918898_0_0" index="0" disallow="tram rail_urban rail rail_electric rail_fast ship container cable_car subway aircraft wheelchair scooter drone" speed="6.50" length="9.03" shape="637.90,313.17 636.37,315.11 635.83,317.08 636.28,319.07 637.72,321.09"/>
    </edge>
    <edge id=":411918898_1" function="internal">
        <lane id=":411918898_1_0" index="0" disallow="tram rail_urban rail rail_electric rail_fast ship container cable_car subway aircraft wheelchair scooter drone" speed="7.31" length="9.60" shape="626.97,312.10 629.17,313.10 631.35,313.23 633.53,312.48 635.69,310.86"/>
    </edge>
    <edge id=":411918898_2" function="internal">
        <lane id=":411918898_2_0" index="0" disallow="tram rail_urban rail rail_electric rail_fast ship container cable_car subway aircraft wheelchair scooter drone" speed="27.78" length="14.04" shape="626.97,312.10 629.93,314.15 632.62,316.26 635.17,318.54 637.72,321.09"/>
    </edge>
    <edge id=":411918898_w0" function="walkingarea">
        <lane id=":411918898_w0_0" index="0" allow="pedestrian" speed="2.78" length="9.22" width="6.40" shape="636.56,322.19 638.88,319.98 637.66,318.07 637.53,317.12 637.71,316.18 638.20,315.25 639.01,314.33 634.59,309.70 632.33,311.26 631.20,311.59 630.08,311.61 628.96,311.33 627.85,310.76 626.10,313.43 628.53,315.04 630.30,316.27 631.70,317.36 633.02,318.55 634.55,320.09"/>
    </edge>
    <edge id=":411924732_w0" function="walkingarea">
        <lane id=":411924732_w0_0" index="0" allow="pedestrian" speed="2.78" length="0.10" width="3.20" shape="93.38,579.65 86.65,572.80"/>
    </edge>
    <edge id=":411925942_0" function="internal">
        <lane id=":411925942_0_0" index="0" disallow="tram rail_urban rail rail_electric rail_fast ship container cable_car subway aircraft wheelchair scooter drone" speed="6.47" length="9.03" shape="486.14,222.04 484.23,220.45 482.28,219.86 480.29,220.27 478.25,221.68"/>
    </edge>
    <edge id=":411925942_1" function="internal">
        <lane id=":411925942_1_0" index="0" disallow="tram rail_urban rail rail_electric rail_fast ship container cable_car subway aircraft wheelchair scooter drone" speed="27.78" length="14.48" shape="486.14,222.04 476.40,211.39"/>
        <lane id=":411925942_1_1" index="1" disallow="tram rail_urban rail rail_electric rail_fast ship container cable_car subway aircraft wheelchair scooter drone" speed="27.78" length="14.48" shape="488.51,219.90 478.75,209.21"/>
        <lane id=":411925942_1_2" index="2" disallow="tram rail_urban rail rail_electric rail_fast ship container cable_car subway aircraft wheelchair scooter drone" speed="27.78" length="14.48" shape="490.89,217.76 481.09,207.03"/>
    </edge>
    <edge id=":411925942_4" function="internal">
        <lane id=":411925942_4_0" index="0" disallow="tram rail_urban rail rail_electric rail_fast ship container cable_car subway aircraft wheelchair scooter drone" speed="27.78" length="17.62" shape="491.21,209.75 478.25,221.68"/>
        <lane id=":411925942_4_1" index="1" disallow="tram rail_urban rail rail_electric rail_fast ship container cable_car subway aircraft wheelchair scooter drone" speed="27.78" length="17.62" shape="489.05,207.39 476.07,219.33"/>
    </edge>
    <edge id=":411925942_6" function="internal">
        <lane id=":411925942_6_0" index="0" disallow="tram rail_urban rail rail_electric rail_fast ship container cable_car subway aircraft wheelchair scooter drone" speed="7.35" length="11.74" shape="489.05,207.39 485.97,209.73 483.23,210.81 480.82,210.64 478.75,209.21"/>
        <lane id=":411925942_6_1" index="1" disallow="tram rail_urban rail rail_electric rail_fast ship container cable_car subway aircraft wheelchair scooter drone" speed="6.54" length="9.07" shape="489.05,207.39 487.00,208.78 485.00,209.18 483.03,208.60 481.09,207.03"/>
    </edge>
    <edge id=":411925942_w0" function="walkingarea">
        <lane id=":411925942_w0_0" index="0" allow="pedestrian" speed="2.78" length="13.10" width="3.20" shape="484.95,223.11 492.08,216.69 490.88,214.69 490.76,213.72 490.95,212.77 491.46,211.84 492.29,210.93 487.97,206.21 486.02,207.38 485.07,207.49 484.12,207.29 483.19,206.77 482.26,205.94 475.23,212.48 476.41,214.41 476.53,215.36 476.33,216.30 475.82,217.24 474.99,218.16 479.34,222.85 481.26,221.67 482.21,221.56 483.13,221.76 484.05,222.27"/>
    </edge>
    <edge id=":411925946_0" function="internal">
        <lane id=":411925946_0_0" index="0" disallow="tram rail_urban rail rail_electric rail_fast ship container cable_car subway aircraft wheelchair scooter drone" speed="27.78" length="9.59" shape="714.25,233.52 715.97,235.76 716.85,237.53 717.72,239.30 719.44,241.54"/>
        <lane id=":411925946_0_1" index="1" disallow="tram rail_urban rail rail_electric rail_fast ship container cable_car subway aircraft wheelchair scooter drone" speed="27.78" length="9.59" shape="711.90,235.69 713.62,237.93 714.49,239.69 715.36,241.46 717.08,243.70"/>
    </edge>
    <edge id=":411925946_2" function="internal">
        <lane id=":411925946_2_0" index="0" disallow="tram rail_urban rail rail_electric rail_fast ship container cable_car subway aircraft wheelchair scooter drone" speed="6.08" length="7.75" shape="709.54,237.86 711.27,240.02 712.17,241.86 712.26,243.38 711.53,244.59"/>
    </edge>
    <edge id=":411925946_3" function="internal">
        <lane id=":411925946_3_0" index="0" disallow="tram rail_urban rail rail_electric rail_fast ship container cable_car subway aircraft wheelchair scooter drone" speed="6.46" length="8.91" shape="709.36,242.24 711.14,241.13 713.02,241.01 715.00,241.87 717.08,243.70"/>
    </edge>
    <edge id=":411925946_w0" function="walkingarea">
        <lane id=":411925946_w0_0" index="0" allow="pedestrian" speed="2.78" length="8.78" width="6.40" shape="715.90,244.78 720.62,240.46 719.34,238.89 718.56,237.60 718.03,236.45 717.50,235.30 716.71,234.01 715.43,232.44 708.37,238.94 708.81,239.67 708.85,240.02 708.78,240.37 708.59,240.72 708.28,241.06 712.62,245.77 713.99,244.73 714.57,244.48 715.08,244.40 715.52,244.50"/>
    </edge>
    <edge id=":411926051_0" function="internal">
        <lane id=":411926051_0_0" index="0" disallow="tram rail_urban rail rail_electric rail_fast ship container cable_car subway aircraft wheelchair scooter drone" speed="27.78" length="13.50" shape="310.43,715.11 319.65,725.01"/>
        <lane id=":411926051_0_1" index="1" disallow="tram rail_urban rail rail_electric rail_fast ship container cable_car subway aircraft wheelchair scooter drone" speed="27.78" length="13.50" shape="308.11,717.31 317.28,727.17"/>
    </edge>
    <edge id=":411926051_2" function="internal">
        <lane id=":411926051_2_0" index="0" disallow="pedestrian tram rail_urban rail rail_electric rail_fast ship container cable_car subway aircraft wheelchair scooter drone" speed="6.60" length="9.87" shape="308.11,717.31 310.48,720.13 311.77,722.47 311.99,724.34 311.12,725.72"/>
    </edge>
    <edge id=":411926051_3" function="internal">
        <lane id=":411926051_3_0" index="0" disallow="pedestrian tram rail_urban rail rail_electric rail_fast ship container cable_car subway aircraft wheelchair scooter drone" speed="6.89" length="9.83" shape="309.10,723.24 310.60,722.68 312.47,723.14 314.69,724.64 317.28,727.17"/>
    </edge>
    <edge id=":411926051_w0" function="walkingarea">
        <lane id=":411926051_w0_0" index="0" allow="pedestrian" speed="2.78" length="10.29" width="3.20" shape="312.13,726.96 313.39,728.51 316.10,728.24 318.46,726.09 320.83,723.94 311.58,714.00 309.27,716.21 306.95,718.42 306.82,720.45 308.09,722.00"/>
    </edge>
    <edge id=":411926164_0" function="internal">
        <lane id=":411926164_0_0" index="0" disallow="pedestrian tram rail_urban rail rail_electric rail_fast ship container cable_car subway aircraft wheelchair scooter drone" speed="8.00" length="14.23" shape="281.73,221.62 279.50,218.41 278.84,215.26 279.73,212.18 282.18,209.16"/>
        <lane id=":411926164_0_1" index="1" disallow="pedestrian tram rail_urban rail rail_electric rail_fast ship container cable_car subway aircraft wheelchair scooter drone" speed="6.51" length="9.06" shape="284.08,219.44 282.65,217.40 282.23,215.39 282.80,213.43 284.36,211.51"/>
    </edge>
    <edge id=":411926164_2" function="internal">
        <lane id=":411926164_2_0" index="0" disallow="tram rail_urban rail rail_electric rail_fast ship container cable_car subway aircraft wheelchair scooter drone" speed="27.78" length="16.45" shape="267.97,218.06 280.01,206.81"/>
        <lane id=":411926164_2_1" index="1" disallow="tram rail_urban rail rail_electric rail_fast ship container cable_car subway aircraft wheelchair scooter drone" speed="27.78" length="16.45" shape="270.17,220.39 282.18,209.16"/>
        <lane id=":411926164_2_2" index="2" disallow="tram rail_urban rail rail_electric rail_fast ship container cable_car subway aircraft wheelchair scooter drone" speed="27.78" length="16.45" shape="272.36,222.72 284.36,211.51"/>
    </edge>
    <edge id=":411926164_w0" function="walkingarea">
        <lane id=":411926164_w0_0" index="0" allow="pedestrian" speed="2.78" length="15.35" width="3.20" shape="285.44,212.68 283.27,210.33 281.10,207.98 278.93,205.63 266.88,216.90 269.07,219.22 271.27,221.55 273.46,223.88 279.09,224.07 280.56,222.71"/>
    </edge>
    <edge id=":411926212_0" function="internal">
        <lane id=":411926212_0_0" index="0" disallow="tram rail_urban rail rail_electric rail_fast ship container cable_car subway aircraft wheelchair scooter drone" speed="9.25" length="19.39" shape="391.39,120.28 388.33,115.93 387.41,111.65 388.62,107.44 391.96,103.31"/>
        <lane id=":411926212_0_1" index="1" disallow="tram rail_urban rail rail_electric rail_fast ship container cable_car subway aircraft wheelchair scooter drone" speed="7.99" length="14.21" shape="393.72,118.09 391.48,114.90 390.81,111.76 391.69,108.68 394.14,105.65"/>