<?xml version="1.0" encoding="UTF-8"?>

<!-- generated on 2025-10-21 14:18:35 by Eclipse SUMO netconvert Version 1.22.0
<netconvertConfiguration xmlns:xsi="http://www.w3.org/2001/XMLSchema-instance" xsi:noNamespaceSchemaLocation="http://sumo.dlr.de/xsd/netconvertConfiguration.xsd">

    <input>
        <osm-files value="src/model/data/map/region_bbox.osm"/>
    </input>

    <output>
        <output-file value="src/model/sumo_files/network/region_bbox.net.xml"/>
    </output>

    <projection>
        <proj.utm value="true"/>
    </projection>

    <processing>
        <geometry.remove value="true"/>
        <geometry.max-angle value="10"/>
        <roundabouts.guess value="true"/>
    </processing>

    <building_defaults>
        <default.speed value="16.67"/>
    </building_defaults>

    <tls_building>
        <tls.discard-simple value="false"/>
        <tls.join value="false"/>
        <tls.guess-signals value="true"/>
        <tls.allred.time value="2"/>
        <tls.default-type value="static"/>
    </tls_building>

    <ramp_guessing>
        <ramps.guess value="true"/>
    </ramp_guessing>

    <edge_removal>
        <remove-edges.isolated value="true"/>
    </edge_removal>

    <junctions>
        <no-turnarounds value="true"/>
        <junctions.join value="true"/>
    </junctions>

    <report>
        <verbose value="true"/>
    </report>

</netconvertConfiguration>
-->

<net version="1.20" junctionCornerDetail="5" limitTurnSpeed="5.50" xmlns:xsi="http://www.w3.org/2001/XMLSchema-instance" xsi:noNamespaceSchemaLocation="http://sumo.dlr.de/xsd/net_file.xsd">

    <location netOffset="-684768.45,-1192114.63" convBoundary="0.00,0.00,915.46,824.72" origBoundary="106.689893,10.779527,106.698273,10.787004" projParameter="+proj=utm +zone=48 +ellps=WGS84 +datum=WGS84 +units=m +no_defs"/>

    <type id="highway.primary" priority="12" numLanes="2" speed="27.78" disallow="tram rail_urban rail rail_electric rail_fast ship container cable_car subway aircraft wheelchair scooter drone" oneway="0"/>
    <type id="highway.residential" priority="3" numLanes="1" speed="13.89" disallow="tram rail_urban rail rail_electric rail_fast ship container cable_car subway aircraft wheelchair scooter drone" oneway="0"/>
    <type id="highway.secondary" priority="11" numLanes="1" speed="27.78" disallow="tram rail_urban rail rail_electric rail_fast ship container cable_car subway aircraft wheelchair scooter drone" oneway="0"/>
    <type id="highway.tertiary" priority="10" numLanes="1" speed="22.22" disallow="tram rail_urban rail rail_electric rail_fast ship container cable_car subway aircraft wheelchair scooter drone" oneway="0"/>

    <edge id=":10291112014_0" function="internal">
        <lane id=":10291112014_0_0" index="0" disallow="tram rail_urban rail rail_electric rail_fast ship container cable_car subway aircraft wheelchair scooter drone" speed="8.12" length="14.09" shape="436.29,795.06 438.36,796.16 441.10,795.85 444.52,794.14 448.62,791.01"/>
    </edge>
    <edge id=":1769456883_0" function="internal">
        <lane id=":1769456883_0_0" index="0" disallow="tram rail_urban rail rail_electric rail_fast ship container cable_car subway aircraft wheelchair scooter drone" speed="6.50" length="9.03" shape="872.20,163.17 870.29,161.59 868.34,161.00 866.34,161.40 864.30,162.80"/>
    </edge>
    <edge id=":1769456883_1" function="internal">
        <lane id=":1769456883_1_0" index="0" disallow="tram rail_urban rail rail_electric rail_fast ship container cable_car subway aircraft wheelchair scooter drone" speed="8.01" length="14.20" shape="872.20,163.17 870.02,159.94 869.38,156.80 870.30,153.72 872.77,150.72"/>
    </edge>
    <edge id=":1769456883_2" function="internal">
        <lane id=":1769456883_2_0" index="0" disallow="tram rail_urban rail rail_electric rail_fast ship container cable_car subway aircraft wheelchair scooter drone" speed="6.52" length="9.05" shape="874.93,153.08 873.36,155.00 872.77,156.95 873.18,158.96 874.57,161.02"/>
    </edge>
    <edge id=":1769456883_3" function="internal">
        <lane id=":1769456883_3_0" index="0" disallow="tram rail_urban rail rail_electric rail_fast ship container cable_car subway aircraft wheelchair scooter drone" speed="22.22" length="14.40" shape="874.93,153.08 864.30,162.80"/>
    </edge>
    <edge id=":1769456883_4" function="internal">
        <lane id=":1769456883_4_0" index="0" disallow="tram rail_urban rail rail_electric rail_fast ship container cable_car subway aircraft wheelchair scooter drone" speed="22.22" length="14.40" shape="862.14,160.44 872.77,150.72"/>
    </edge>
    <edge id=":1769456883_5" function="internal">
        <lane id=":1769456883_5_0" index="0" disallow="tram rail_urban rail rail_electric rail_fast ship container cable_car subway aircraft wheelchair scooter drone" speed="8.00" length="4.07" shape="862.14,160.44 865.35,158.24 865.53,158.21"/>
    </edge>
    <edge id=":1769456883_6" function="internal">
        <lane id=":1769456883_6_0" index="0" disallow="tram rail_urban rail rail_electric rail_fast ship container cable_car subway aircraft wheelchair scooter drone" speed="8.00" length="10.13" shape="865.53,158.21 868.50,157.61 871.57,158.53 874.57,161.02"/>
    </edge>
    <edge id=":1769456941_0" function="internal">
        <lane id=":1769456941_0_0" index="0" disallow="tram rail_urban rail rail_electric rail_fast ship container cable_car subway aircraft wheelchair scooter drone" speed="6.08" length="7.76" shape="880.09,141.84 881.30,143.59 881.65,145.31 881.15,146.99 879.80,148.63"/>
    </edge>
    <edge id=":1769456941_1" function="internal">
        <lane id=":1769456941_1_0" index="0" disallow="tram rail_urban rail rail_electric rail_fast ship container cable_car subway aircraft wheelchair scooter drone" speed="3.90" length="2.59" shape="877.64,146.27 878.09,145.72 878.26,145.16 878.14,144.59 877.74,144.01"/>
    </edge>
    <edge id=":2036141724_0" function="internal">
        <lane id=":2036141724_0_0" index="0" disallow="tram rail_urban rail rail_electric rail_fast ship container cable_car subway aircraft wheelchair scooter drone" speed="5.76" length="7.09" shape="0.27,511.18 -0.07,510.28 0.36,509.02 1.55,507.40 3.51,505.42"/>
    </edge>
    <edge id=":2036141730_0" function="internal">
        <lane id=":2036141730_0_0" index="0" disallow="tram rail_urban rail rail_electric rail_fast ship container cable_car subway aircraft wheelchair scooter drone" speed="6.17" length="7.80" shape="2.67,509.05 4.20,510.10 5.86,510.31 7.64,509.70 9.55,508.26"/>
        <lane id=":2036141730_0_1" index="1" disallow="tram rail_urban rail rail_electric rail_fast ship container cable_car subway aircraft wheelchair scooter drone" speed="7.00" length="10.35" shape="2.67,509.05 5.19,511.09 7.54,512.02 9.73,511.86 11.75,510.59"/>
    </edge>
    <edge id=":2036596690_0" function="internal">
        <lane id=":2036596690_0_0" index="0" disallow="tram rail_urban rail rail_electric rail_fast ship container cable_car subway aircraft wheelchair scooter drone" speed="6.53" length="8.52" shape="695.60,381.69 693.79,380.23 691.93,379.65 690.00,379.93 688.01,381.10"/>
    </edge>
    <edge id=":2036596690_1" function="internal">
        <lane id=":2036596690_1_0" index="0" disallow="tram rail_urban rail rail_electric rail_fast ship container cable_car subway aircraft wheelchair scooter drone" speed="27.78" length="13.50" shape="697.90,371.93 695.48,374.48 693.16,376.73 690.73,378.87 688.01,381.10"/>
    </edge>
    <edge id=":2230280818_0" function="internal">
        <lane id=":2230280818_0_0" index="0" disallow="tram rail_urban rail rail_electric rail_fast ship container cable_car subway aircraft wheelchair scooter drone" speed="6.77" length="9.37" shape="488.72,725.47 486.70,723.77 484.65,723.05 482.56,723.31 480.43,724.54"/>
    </edge>
    <edge id=":2230280818_1" function="internal">
        <lane id=":2230280818_1_0" index="0" disallow="tram rail_urban rail rail_electric rail_fast ship container cable_car subway aircraft wheelchair scooter drone" speed="6.37" length="9.04" shape="491.69,715.53 489.98,717.36 489.31,719.26 489.67,721.25 491.08,723.31"/>
    </edge>
    <edge id=":2230280818_2" function="internal">
        <lane id=":2230280818_2_0" index="0" disallow="tram rail_urban rail rail_electric rail_fast ship container cable_car subway aircraft wheelchair scooter drone" speed="27.78" length="14.41" shape="491.69,715.53 480.43,724.54"/>
    </edge>
    <edge id=":2231187556_0" function="internal">
        <lane id=":2231187556_0_0" index="0" disallow="tram rail_urban rail rail_electric rail_fast ship container cable_car subway aircraft wheelchair scooter drone" speed="6.57" length="9.11" shape="813.38,632.02 811.41,630.46 809.42,629.88 807.41,630.30 805.37,631.70"/>
    </edge>
    <edge id=":2231187556_1" function="internal">
        <lane id=":2231187556_1_0" index="0" disallow="tram rail_urban rail rail_electric rail_fast ship container cable_car subway aircraft wheelchair scooter drone" speed="6.47" length="9.03" shape="815.94,621.92 814.38,623.84 813.82,625.80 814.26,627.79 815.70,629.81"/>
    </edge>
    <edge id=":2231187556_2" function="internal">
        <lane id=":2231187556_2_0" index="0" disallow="tram rail_urban rail rail_electric rail_fast ship container cable_car subway aircraft wheelchair scooter drone" speed="16.67" length="14.40" shape="815.94,621.92 805.37,631.70"/>
        <lane id=":2231187556_2_1" index="1" disallow="tram rail_urban rail rail_electric rail_fast ship container cable_car subway aircraft wheelchair scooter drone" speed="16.67" length="14.40" shape="813.77,619.57 803.20,629.35"/>
    </edge>
    <edge id=":2664205599_0" function="internal">
        <lane id=":2664205599_0_0" index="0" disallow="tram rail_urban rail rail_electric rail_fast ship container cable_car subway aircraft wheelchair scooter drone" speed="27.78" length="16.72" shape="557.53,-2.64 568.71,9.78"/>
        <lane id=":2664205599_0_1" index="1" disallow="tram rail_urban rail rail_electric rail_fast ship container cable_car subway aircraft wheelchair scooter drone" speed="27.78" length="16.72" shape="555.15,-0.51 566.33,11.92"/>
        <lane id=":2664205599_0_2" index="2" disallow="tram rail_urban rail rail_electric rail_fast ship container cable_car subway aircraft wheelchair scooter drone" speed="27.78" length="16.72" shape="552.77,1.63 563.95,14.07"/>
    </edge>
    <edge id=":2664205599_3" function="internal">
        <lane id=":2664205599_3_0" index="0" disallow="tram rail_urban rail rail_electric rail_fast ship container cable_car subway aircraft wheelchair scooter drone" speed="9.23" length="19.48" shape="551.71,9.03 556.10,5.98 560.40,5.09 564.60,6.36 568.71,9.78"/>
        <lane id=":2664205599_3_1" index="1" disallow="tram rail_urban rail rail_electric rail_fast ship container cable_car subway aircraft wheelchair scooter drone" speed="7.97" length="14.25" shape="553.89,11.37 557.10,9.14 560.25,8.49 563.32,9.42 566.33,11.92"/>
        <lane id=":2664205599_3_2" index="2" disallow="tram rail_urban rail rail_electric rail_fast ship container cable_car subway aircraft wheelchair scooter drone" speed="6.47" length="9.03" shape="556.07,13.71 558.11,12.30 560.10,11.89 562.05,12.47 563.95,14.07"/>
    </edge>
    <edge id=":3474054214_0" function="internal">
        <lane id=":3474054214_0_0" index="0" disallow="tram rail_urban rail rail_electric rail_fast ship container cable_car subway aircraft wheelchair scooter drone" speed="6.83" length="10.39" shape="897.96,368.27 899.61,370.61 900.09,372.89 899.39,375.11 897.51,377.27"/>
    </edge>
    <edge id=":411918058_0" function="internal">
        <lane id=":411918058_0_0" index="0" disallow="tram rail_urban rail rail_electric rail_fast ship container cable_car subway aircraft wheelchair scooter drone" speed="6.90" length="8.47" shape="627.57,318.12 628.69,315.99 629.04,313.99 628.64,312.11 627.47,310.36"/>
        <lane id=":411918058_0_1" index="1" disallow="tram rail_urban rail rail_electric rail_fast ship container cable_car subway aircraft wheelchair scooter drone" speed="7.73" length="10.84" shape="627.57,318.12 629.53,314.84 630.56,312.10 630.67,309.88 629.84,308.20"/>
        <lane id=":411918058_0_2" index="2" disallow="tram rail_urban rail rail_electric rail_fast ship container cable_car subway aircraft wheelchair scooter drone" speed="8.54" length="13.43" shape="627.57,318.12 630.38,313.69 632.08,310.20 632.69,307.65 632.20,306.04"/>
    </edge>
    <edge id=":411918058_3" function="internal">
        <lane id=":411918058_3_0" index="0" disallow="tram rail_urban rail rail_electric rail_fast ship container cable_car subway aircraft wheelchair scooter drone" speed="21.08" length="16.81" shape="627.57,318.12 630.08,314.97 633.19,311.89 636.58,309.13 639.98,306.96"/>
    </edge>
    <edge id=":411918558_0" function="internal">
        <lane id=":411918558_0_0" index="0" disallow="tram rail_urban rail rail_electric rail_fast ship container cable_car subway aircraft wheelchair scooter drone" speed="16.67" length="9.37" shape="271.66,462.53 264.74,468.83"/>
        <lane id=":411918558_0_1" index="1" disallow="tram rail_urban rail rail_electric rail_fast ship container cable_car subway aircraft wheelchair scooter drone" speed="16.67" length="9.37" shape="269.52,460.16 262.57,466.47"/>
    </edge>
    <edge id=":411918558_2" function="internal">
        <lane id=":411918558_2_0" index="0" disallow="tram rail_urban rail rail_electric rail_fast ship container cable_car subway aircraft wheelchair scooter drone" speed="6.07" length="7.78" shape="269.52,460.16 267.34,461.86 265.48,462.74 263.95,462.79 262.74,462.03"/>
    </edge>
    <edge id=":411918558_3" function="internal">
        <lane id=":411918558_3_0" index="0" disallow="tram rail_urban rail rail_electric rail_fast ship container cable_car subway aircraft wheelchair scooter drone" speed="6.12" length="7.77" shape="265.14,459.91 265.75,461.19 265.53,462.71 264.47,464.47 262.57,466.47"/>
    </edge>
    <edge id=":411918560_0" function="internal">
        <lane id=":411918560_0_0" index="0" disallow="tram rail_urban rail rail_electric rail_fast ship container cable_car subway aircraft wheelchair scooter drone" speed="6.84" length="10.30" shape="157.28,385.93 155.62,383.64 155.11,381.38 155.75,379.15 157.54,376.96"/>
        <lane id=":411918560_0_1" index="1" disallow="tram rail_urban rail rail_electric rail_fast ship container cable_car subway aircraft wheelchair scooter drone" speed="6.05" length="7.83" shape="157.28,385.93 156.59,384.65 156.76,383.12 157.80,381.34 159.71,379.32"/>
    </edge>
    <edge id=":411918560_2" function="internal">
        <lane id=":411918560_2_0" index="0" disallow="tram rail_urban rail rail_electric rail_fast ship container cable_car subway aircraft wheelchair scooter drone" speed="27.78" length="9.40" shape="148.45,380.96 155.38,374.60"/>
        <lane id=":411918560_2_1" index="1" disallow="tram rail_urban rail rail_electric rail_fast ship container cable_car subway aircraft wheelchair scooter drone" speed="27.78" length="9.40" shape="150.61,383.32 157.54,376.96"/>
        <lane id=":411918560_2_2" index="2" disallow="tram rail_urban rail rail_electric rail_fast ship container cable_car subway aircraft wheelchair scooter drone" speed="27.78" length="9.40" shape="152.78,385.68 159.71,379.32"/>
    </edge>
    <edge id=":411918560_5" function="internal">
        <lane id=":411918560_5_0" index="0" disallow="tram rail_urban rail rail_electric rail_fast ship container cable_car subway aircraft wheelchair scooter drone" speed="6.15" length="7.80" shape="152.78,385.68 154.93,383.97 156.78,383.07 158.33,382.98 159.58,383.70"/>
    </edge>
    <edge id=":411918613_0" function="internal">
        <lane id=":411918613_0_0" index="0" disallow="tram rail_urban rail rail_electric rail_fast ship container cable_car subway aircraft wheelchair scooter drone" speed="6.49" length="9.03" shape="345.91,402.66 344.00,401.08 342.05,400.50 340.05,400.91 338.01,402.32"/>
    </edge>
    <edge id=":411918613_1" function="internal">
        <lane id=":411918613_1_0" index="0" disallow="tram rail_urban rail rail_electric rail_fast ship container cable_car subway aircraft wheelchair scooter drone" speed="6.56" length="9.09" shape="348.54,392.51 347.00,394.44 346.44,396.41 346.87,398.43 348.28,400.50"/>
    </edge>
    <edge id=":411918613_2" function="internal">
        <lane id=":411918613_2_0" index="0" disallow="tram rail_urban rail rail_electric rail_fast ship container cable_car subway aircraft wheelchair scooter drone" speed="16.67" length="14.38" shape="348.54,392.51 338.01,402.32"/>
        <lane id=":411918613_2_1" index="1" disallow="tram rail_urban rail rail_electric rail_fast ship container cable_car subway aircraft wheelchair scooter drone" speed="16.67" length="14.38" shape="346.35,390.17 335.84,399.97"/>
    </edge>
    <edge id=":411918651_0" function="internal">
        <lane id=":411918651_0_0" index="0" disallow="tram rail_urban rail rail_electric rail_fast ship container cable_car subway aircraft wheelchair scooter drone" speed="6.56" length="9.10" shape="261.80,716.81 259.86,715.23 257.88,714.63 255.86,715.02 253.81,716.39"/>
    </edge>
    <edge id=":411918651_1" function="internal">
        <lane id=":411918651_1_0" index="0" disallow="tram rail_urban rail rail_electric rail_fast ship container cable_car subway aircraft wheelchair scooter drone" speed="7.98" length="14.25" shape="261.80,716.81 259.58,713.59 258.93,710.45 259.85,707.37 262.36,704.37"/>
    </edge>
    <edge id=":411918651_2" function="internal">
        <lane id=":411918651_2_0" index="0" disallow="tram rail_urban rail rail_electric rail_fast ship container cable_car subway aircraft wheelchair scooter drone" speed="6.48" length="9.03" shape="264.50,706.75 262.91,708.65 262.33,710.60 262.74,712.60 264.15,714.64"/>
    </edge>
    <edge id=":411918651_3" function="internal">
        <lane id=":411918651_3_0" index="0" disallow="tram rail_urban rail rail_electric rail_fast ship container cable_car subway aircraft wheelchair scooter drone" speed="22.22" length="14.40" shape="264.50,706.75 253.81,716.39"/>
    </edge>
    <edge id=":411918651_4" function="internal">
        <lane id=":411918651_4_0" index="0" disallow="tram rail_urban rail rail_electric rail_fast ship container cable_car subway aircraft wheelchair scooter drone" speed="22.22" length="14.40" shape="251.66,714.02 262.36,704.37"/>
    </edge>
    <edge id=":411918651_5" function="internal">
        <lane id=":411918651_5_0" index="0" disallow="tram rail_urban rail rail_electric rail_fast ship container cable_car subway aircraft wheelchair scooter drone" speed="8.05" length="4.05" shape="251.66,714.02 254.88,711.86 255.05,711.83"/>
    </edge>
    <edge id=":411918651_6" function="internal">
        <lane id=":411918651_6_0" index="0" disallow="tram rail_urban rail rail_electric rail_fast ship container cable_car subway aircraft wheelchair scooter drone" speed="8.05" length="10.17" shape="255.05,711.83 258.03,711.25 261.12,712.17 264.15,714.64"/>
    </edge>
    <edge id=":411918652_0" function="internal">
        <lane id=":411918652_0_0" index="0" disallow="tram rail_urban rail rail_electric rail_fast ship container cable_car subway aircraft wheelchair scooter drone" speed="13.89" length="14.44" shape="319.70,766.72 308.56,775.90"/>
    </edge>
    <edge id=":411918652_1" function="internal">
        <lane id=":411918652_1_0" index="0" disallow="tram rail_urban rail rail_electric rail_fast ship container cable_car subway aircraft wheelchair scooter drone" speed="8.19" length="4.00" shape="319.70,766.72 316.44,768.69 316.26,768.72"/>
    </edge>
    <edge id=":411918652_6" function="internal">
        <lane id=":411918652_6_0" index="0" disallow="tram rail_urban rail rail_electric rail_fast ship container cable_car subway aircraft wheelchair scooter drone" speed="8.19" length="10.29" shape="316.26,768.72 313.25,769.17 310.13,768.15 307.06,765.63"/>
    </edge>
    <edge id=":411918652_2" function="internal">
        <lane id=":411918652_2_0" index="0" disallow="tram rail_urban rail rail_electric rail_fast ship container cable_car subway aircraft wheelchair scooter drone" speed="6.73" length="9.33" shape="309.41,763.46 311.43,765.13 313.47,765.82 315.55,765.52 317.66,764.25"/>
    </edge>
    <edge id=":411918652_3" function="internal">
        <lane id=":411918652_3_0" index="0" disallow="tram rail_urban rail rail_electric rail_fast ship container cable_car subway aircraft wheelchair scooter drone" speed="7.89" length="14.43" shape="309.41,763.46 311.68,766.74 312.29,769.91 311.25,772.96 308.56,775.90"/>
    </edge>
    <edge id=":411918652_4" function="internal">
        <lane id=":411918652_4_0" index="0" disallow="tram rail_urban rail rail_electric rail_fast ship container cable_car subway aircraft wheelchair scooter drone" speed="6.38" length="9.04" shape="306.53,773.43 308.22,771.58 308.87,769.67 308.48,767.69 307.06,765.63"/>
    </edge>
    <edge id=":411918652_5" function="internal">
        <lane id=":411918652_5_0" index="0" disallow="tram rail_urban rail rail_electric rail_fast ship container cable_car subway aircraft wheelchair scooter drone" speed="13.89" length="14.42" shape="306.53,773.43 317.66,764.25"/>
    </edge>
    <edge id=":411918866_0" function="internal">
        <lane id=":411918866_0_0" index="0" disallow="tram rail_urban rail rail_electric rail_fast ship container cable_car subway aircraft wheelchair scooter drone" speed="6.47" length="9.03" shape="763.65,20.12 761.73,18.55 759.78,17.98 757.79,18.42 755.77,19.86"/>
        <lane id=":411918866_0_1" index="1" disallow="tram rail_urban rail rail_electric rail_fast ship container cable_car subway aircraft wheelchair scooter drone" speed="7.29" length="11.76" shape="763.65,20.12 760.78,17.52 758.14,16.23 755.73,16.23 753.56,17.54"/>
    </edge>
    <edge id=":411918898_0" function="internal">
        <lane id=":411918898_0_0" index="0" disallow="tram rail_urban rail rail_electric rail_fast ship container cable_car subway aircraft wheelchair scooter drone" speed="6.83" length="8.32" shape="700.59,312.48 699.34,314.07 698.82,315.86 699.03,317.87 699.97,320.09"/>
    </edge>
    <edge id=":411918898_1" function="internal">
        <lane id=":411918898_1_0" index="0" disallow="tram rail_urban rail rail_electric rail_fast ship container cable_car subway aircraft wheelchair scooter drone" speed="6.56" length="8.61" shape="690.75,310.12 692.66,311.44 694.58,311.88 696.50,311.44 698.43,310.12"/>
    </edge>
    <edge id=":411918898_2" function="internal">
        <lane id=":411918898_2_0" index="0" disallow="tram rail_urban rail rail_electric rail_fast ship container cable_car subway aircraft wheelchair scooter drone" speed="27.78" length="13.65" shape="690.75,310.12 693.39,312.50 695.82,314.75 698.01,317.17 699.97,320.09"/>
    </edge>
    <edge id=":411918912_0" function="internal">
        <lane id=":411918912_0_0" index="0" disallow="tram rail_urban rail rail_electric rail_fast ship container cable_car subway aircraft wheelchair scooter drone" speed="16.67" length="14.31" shape="853.02,773.93 843.34,763.41"/>
        <lane id=":411918912_0_1" index="1" disallow="tram rail_urban rail rail_electric rail_fast ship container cable_car subway aircraft wheelchair scooter drone" speed="16.67" length="14.31" shape="855.39,771.78 845.69,761.23"/>
    </edge>
    <edge id=":411918912_2" function="internal">
        <lane id=":411918912_2_0" index="0" disallow="tram rail_urban rail rail_electric rail_fast ship container cable_car subway aircraft wheelchair scooter drone" speed="7.33" length="11.68" shape="855.39,771.78 853.06,768.71 851.99,765.98 852.15,763.59 853.57,761.54"/>
        <lane id=":411918912_2_1" index="1" disallow="tram rail_urban rail rail_electric rail_fast ship container cable_car subway aircraft wheelchair scooter drone" speed="6.51" length="9.00" shape="855.39,771.78 854.01,769.74 853.60,767.75 854.18,765.80 855.74,763.89"/>
    </edge>
    <edge id=":411919431_0" function="internal">
        <lane id=":411919431_0_0" index="0" disallow="tram rail_urban rail rail_electric rail_fast ship container cable_car subway aircraft wheelchair scooter drone" speed="7.68" length="12.53" shape="136.88,821.79 133.60,824.24 130.67,825.39 128.07,825.24 125.81,823.79"/>
        <lane id=":411919431_0_1" index="1" disallow="tram rail_urban rail rail_electric rail_fast ship container cable_car subway aircraft wheelchair scooter drone" speed="6.91" length="9.93" shape="136.88,821.79 134.64,823.30 132.42,823.76 130.24,823.17 128.09,821.54"/>
        <lane id=":411919431_0_2" index="2" disallow="tram rail_urban rail rail_electric rail_fast ship container cable_car subway aircraft wheelchair scooter drone" speed="6.14" length="7.63" shape="136.88,821.79 135.67,822.35 134.18,822.12 132.41,821.10 130.36,819.29"/>
    </edge>
    <edge id=":411925935_0" function="internal">
        <lane id=":411925935_0_0" index="0" disallow="tram rail_urban rail rail_electric rail_fast ship container cable_car subway aircraft wheelchair scooter drone" speed="16.67" length="14.41" shape="877.09,565.32 866.53,575.13"/>
        <lane id=":411925935_0_1" index="1" disallow="tram rail_urban rail rail_electric rail_fast ship container cable_car subway aircraft wheelchair scooter drone" speed="16.67" length="14.41" shape="874.91,562.98 864.36,572.78"/>
    </edge>
    <edge id=":411925935_2" function="internal">
        <lane id=":411925935_2_0" index="0" disallow="tram rail_urban rail rail_electric rail_fast ship container cable_car subway aircraft wheelchair scooter drone" speed="7.32" length="11.73" shape="874.91,562.98 871.86,565.35 869.13,566.45 866.73,566.29 864.66,564.86"/>
        <lane id=":411925935_2_1" index="1" disallow="tram rail_urban rail rail_electric rail_fast ship container cable_car subway aircraft wheelchair scooter drone" speed="6.50" length="9.03" shape="874.91,562.98 872.88,564.40 870.89,564.82 868.93,564.25 867.01,562.68"/>
    </edge>
    <edge id=":411925942_0" function="internal">
        <lane id=":411925942_0_0" index="0" disallow="tram rail_urban rail rail_electric rail_fast ship container cable_car subway aircraft wheelchair scooter drone" speed="6.54" length="9.09" shape="544.63,221.96 542.68,220.39 540.70,219.81 538.69,220.23 536.66,221.63"/>
    </edge>
    <edge id=":411925942_1" function="internal">
        <lane id=":411925942_1_0" index="0" disallow="tram rail_urban rail rail_electric rail_fast ship container cable_car subway aircraft wheelchair scooter drone" speed="27.78" length="14.42" shape="544.63,221.96 534.77,211.41"/>
        <lane id=":411925942_1_1" index="1" disallow="tram rail_urban rail rail_electric rail_fast ship container cable_car subway aircraft wheelchair scooter drone" speed="27.78" length="14.42" shape="546.96,219.77 537.12,209.23"/>
        <lane id=":411925942_1_2" index="2" disallow="tram rail_urban rail rail_electric rail_fast ship container cable_car subway aircraft wheelchair scooter drone" speed="27.78" length="14.42" shape="549.29,217.58 539.46,207.05"/>
    </edge>
    <edge id=":411925942_4" function="internal">
        <lane id=":411925942_4_0" index="0" disallow="tram rail_urban rail rail_electric rail_fast ship container cable_car subway aircraft wheelchair scooter drone" speed="16.67" length="17.60" shape="549.59,209.72 536.66,221.63"/>
        <lane id=":411925942_4_1" index="1" disallow="tram rail_urban rail rail_electric rail_fast ship container cable_car subway aircraft wheelchair scooter drone" speed="16.67" length="17.60" shape="547.43,207.36 534.48,219.28"/>
    </edge>
    <edge id=":411925942_6" function="internal">
        <lane id=":411925942_6_0" index="0" disallow="tram rail_urban rail rail_electric rail_fast ship container cable_car subway aircraft wheelchair scooter drone" speed="7.36" length="11.76" shape="547.43,207.36 544.35,209.71 541.60,210.81 539.19,210.65 537.12,209.23"/>
        <lane id=":411925942_6_1" index="1" disallow="tram rail_urban rail rail_electric rail_fast ship container cable_car subway aircraft wheelchair scooter drone" speed="6.54" length="9.08" shape="547.43,207.36 545.38,208.76 543.36,209.18 541.39,208.61 539.46,207.05"/>
    </edge>
    <edge id=":411925946_0" function="internal">
        <lane id=":411925946_0_0" index="0" disallow="tram rail_urban rail rail_electric rail_fast ship container cable_car subway aircraft wheelchair scooter drone" speed="6.86" length="10.29" shape="783.29,236.86 781.22,239.23 780.30,241.51 780.52,243.69 781.88,245.78"/>
    </edge>
    <edge id=":411925946_1" function="internal">
        <lane id=":411925946_1_0" index="0" disallow="tram rail_urban rail rail_electric rail_fast ship container cable_car subway aircraft wheelchair scooter drone" speed="22.22" length="17.60" shape="783.29,236.86 770.30,248.74"/>
    </edge>
    <edge id=":411925946_2" function="internal">
        <lane id=":411925946_2_0" index="0" disallow="tram rail_urban rail rail_electric rail_fast ship container cable_car subway aircraft wheelchair scooter drone" speed="6.52" length="9.06" shape="773.19,234.14 775.12,235.71 777.08,236.30 779.09,235.89 781.13,234.50"/>
    </edge>
    <edge id=":411925946_3" function="internal">
        <lane id=":411925946_3_0" index="0" disallow="tram rail_urban rail rail_electric rail_fast ship container cable_car subway aircraft wheelchair scooter drone" speed="22.22" length="14.58" shape="773.19,234.14 775.92,237.47 777.51,239.99 779.11,242.49 781.88,245.78"/>