<?xml version='1.0' encoding='utf-8'?>
<routes><vType id="motorcycle" vClass="motorcycle" accel="3.0" decel="5.0" sigma="0.7" length="2.0" width="0.8" maxSpeed="16.67" color="yellow" minGap="0.5" lcAssertive="1.6" lcSpeedGain="1.6" lcStrategic="1.3" lcCooperative="0.7" /><vType id="car" vClass="passenger" accel="2.5" decel="4.5" sigma="0.3" length="4.5" width="1.8" maxSpeed="13.89" color="blue" minGap="2.0" lcAssertive="1.2" lcSpeedGain="1.3" lcStrategic="1.6" lcCooperative="0.8" /><vType id="bus" vClass="bus" accel="1.5" decel="3.5" sigma="0.2" length="12.0" width="2.5" maxSpeed="11.11" color="green" minGap="3.0" lcAssertive="1.0" lcSpeedGain="1.0" lcStrategic="1.0" lcCooperative="1.0" /><vType id="truck" vClass="truck" accel="1.8" decel="4.0" sigma="0.2" length="7.5" width="2.2" maxSpeed="11.11" color="red" minGap="3.0" lcAssertive="1.0" lcSpeedGain="1.0" lcStrategic="1.0" lcCooperative="1.0" /><vehicle id="0" depart="25200.00" type="motorcycle">
        <route edges="35112983 193616433#2 608262688 749986989 747226800 326849845 1162554504 971692799 35113306 1267462154 1267462155 -1162554504" />
    </vehicle>
    <vehicle id="1" depart="25208.00" type="motorcycle">
        <route edges="1267462152#1 -1345417678 1345417676 -306641038 1267653586#0 1267653586#1 1056903939 747226805#0 747226805#1 327074920 -747226804" />
    </vehicle>
    <vehicle id="2" depart="25216.00" type="motorcycle">
        <route edges="408845370 673254417#0 747226803#1 35113306 1267462154 928038825#0 326849846#1" />
    </vehicle>
    <vehicle id="3" depart="25224.00" type="motorcycle">
        <route edges="747226804 1267462152#0 1267462152#1 -1345417678 1345417676 -306641038" />
    </vehicle>
    <vehicle id="4" depart="25232.00" type="motorcycle">
        <route edges="1345417676 -306641038 -673254417#1 747226803#1 35113306 1267462154 1267462155 -1162554504" />
    </vehicle>
    <vehicle id="5" depart="25240.00" type="motorcycle">
        <route edges="1162554504 971692799 35113306 1267462154 1267462155 -1162554504 408845370 673254417#0 673254417#1 306641038 1345417677 1345417678" />
    </vehicle>
    <vehicle id="6" depart="25248.00" type="car">
        <route edges="-1267462153 1267462152#0 1267462152#1 -1345417678 1345417676 -306641038 -673254417#1" />
    </vehicle>
    <vehicle id="9" depart="25272.00" type="car">
        <route edges="673254417#1 1267653586#0 1267653586#1 1056903939 -1056903938" />
    </vehicle>
    <vehicle id="10" depart="25280.00" type="motorcycle">
        <route edges="673254417#0 747226803#1 35113306 1267462154 928038825#0 326849846#1 1056903939 747226805#0 747226805#1 327074920" />
    </vehicle>
    <vehicle id="12" depart="25296.00" type="motorcycle">
        <route edges="749986989 747226800 326849846#0 326849846#1 1056903939 747226805#0 747226805#1 327074920 1267462153" />
    </vehicle>
    <vehicle id="14" depart="25312.00" type="car">
        <route edges="747226803#0 673254417#1 306641038" />
    </vehicle>
    <vehicle id="15" depart="25320.00" type="motorcycle">
        <route edges="673254417#0 747226803#1 35113306 35113196 747226804 1267462152#0 35112848" />
    </vehicle>
    <vehicle id="16" depart="25328.00" type="motorcycle">
        <route edges="193616433#2 608262688 749986989 747226800 326849845 1162554504 971692799 35113306 1267462154 928038825#0" />
    </vehicle>
    <vehicle id="18" depart="25344.00" type="motorcycle">
        <route edges="747226800 326849846#0 326849846#1 1056903939 747226805#0 747226805#1 326770986" />
    </vehicle>
    <vehicle id="21" depart="25368.00" type="motorcycle">
        <route edges="1162554504 971692799 35113306 35113196 747226804 1267462152#0" />
    </vehicle>
    <vehicle id="22" depart="25376.00" type="motorcycle">
        <route edges="-306641038 1267653586#0 1267653586#1 1056903939" />
    </vehicle>
    <vehicle id="23" depart="25384.00" type="motorcycle">
        <route edges="-35112848 1267462152#1 -1345417678 1345417676 -306641038 -673254417#1 747226803#1 35113306 1267462154 928038825#0 928038825#1 749986989 747226800 326849845 1162554504" />
    </vehicle>
    <vehicle id="24" depart="25392.00" type="motorcycle">
        <route edges="35112983 193616433#2 608262688 749986989 747226800 326849845 408845370 673254417#0 673254417#1 1267653586#0" />
    </vehicle>
    <vehicle id="26" depart="25408.00" type="motorcycle">
        <route edges="1267462152#0 1267462152#1 -1345417678 1345417676 -306641038 1267653586#0 1267653586#1 1056903939 747226805#0 747226805#1" />
    </vehicle>
    <vehicle id="27" depart="25416.00" type="motorcycle">
        <route edges="35112983 193616433#2 608262688 749986989 747226800 326849845 408845370 673254417#0 673254417#1 306641038" />
    </vehicle>
    <vehicle id="28" depart="25424.00" type="motorcycle">
        <route edges="-747226804 1267653586#1 1056903939 747226805#0 747226805#1 327074920 1267462152#0 35112848" />
    </vehicle>
    <vehicle id="29" depart="25432.00" type="motorcycle">
        <route edges="-747226804 1267653586#1" />
    </vehicle>
    <vehicle id="30" depart="25440.00" type="car">
        <route edges="928038825#1 749986989 747226800 326849845" />
    </vehicle>
    <vehicle id="32" depart="25456.00" type="motorcycle">
        <route edges="747226800 326849845 408845370" />
    </vehicle>
    <vehicle id="33" depart="25464.00" type="motorcycle">
        <route edges="1162554504 971692799 35113306 1267462154 1267462155 -1162554504" />
    </vehicle>
    <vehicle id="34" depart="25472.00" type="motorcycle">
        <route edges="1267653586#1 1056903939 747226805#0 747226805#1 327074920 1267462152#0 1267462152#1 408153725 1125370519" />
    </vehicle>
    <vehicle id="35" depart="25480.00" type="motorcycle">
        <route edges="1056903939 747226805#0 747226805#1 327074920 -747226804 -35113196 1267462154 928038825#0 928038825#1 749986989" />
    </vehicle>
    <vehicle id="36" depart="25488.00" type="motorcycle">
        <route edges="747226803#1 35113306 35113196 747226804 1267462152#0 1267462152#1" />
    </vehicle>
    <vehicle id="37" depart="25496.00" type="truck">
        <route edges="35113196 1267653586#1 1267653586#2" />
    </vehicle>
    <vehicle id="38" depart="25504.00" type="car">
        <route edges="747226805#0 747226805#1 327074920 1267462152#0 1267462152#1 1336695528" />
    </vehicle>
    <vehicle id="39" depart="25512.00" type="car">
        <route edges="1267462152#0 1267462152#1 -1345417678 1345417676 -306641038 1267653586#0 1267653586#1 1056903939" />
    </vehicle>
    <vehicle id="40" depart="25520.00" type="motorcycle">
        <route edges="326849845 408845370 673254417#0 673254417#1 306641038 1345417677 1345417678 408153725 1125370519" />
    </vehicle>
    <vehicle id="41" depart="25528.00" type="motorcycle">
        <route edges="326849846#0 928038825#1 749986989 747226800 326849845 1162554504 971692799 35113306 35113196 747226804" />
    </vehicle>
    <vehicle id="42" depart="25536.00" type="motorcycle">
        <route edges="1336695529 -1336695528 -1345417678 1345417676 -306641038 1267653586#0 1267653586#1 1056903939 747226805#0 747226805#1 327074920 -747226804" />
    </vehicle>
    <vehicle id="43" depart="25544.00" type="motorcycle">
        <route edges="928038825#1 749986989 747226800 326849845 408845370 673254417#0 673254417#1 306641038 1345417677 1345417678" />
    </vehicle>
    <vehicle id="45" depart="25560.00" type="car">
        <route edges="-35112848 1267462152#1 -1345417678 1345417676 -306641038 1267653586#0 1267653586#1 1056903939 747226805#0 747226805#1 326770986" />
    </vehicle>
    <vehicle id="47" depart="25576.00" type="motorcycle">
        <route edges="-1345417678 1345417676 -306641038 1267653586#0 1267653586#1" />
    </vehicle>
    <vehicle id="49" depart="25592.00" type="car">
        <route edges="928038825#0 928038825#1 749986989 747226800" />
    </vehicle>
    <vehicle id="50" depart="25600.00" type="motorcycle">
        <route edges="-1162554504 408845370 673254417#0 747226803#1 35113306 35113196 747226804 1267462152#0 35112848" />
    </vehicle>
    <vehicle id="52" depart="25616.00" type="truck">
        <route edges="1267462152#0 1267462152#1 -1345417678 1345417676 -306641038 -673254417#1 747226803#1 35113306 1267462154 928038825#0 928038825#1 749986989 747226800 326849845" />
    </vehicle>
    <vehicle id="53" depart="25624.00" type="motorcycle">
        <route edges="-35112848 1267462152#1 1336695528 1336695527" />
    </vehicle>
    <vehicle id="55" depart="25640.00" type="motorcycle">
        <route edges="747226803#1 35113306 35113196 747226804 1267462152#0 1267462152#1 408153725 1125370519" />
    </vehicle>
    <vehicle id="56" depart="25648.00" type="motorcycle">
        <route edges="193616433#1 193616433#2 608262688 749986989 747226800 326849846#0 326849846#1 1056903939 747226805#0 747226805#1 327074920 1267462152#0 1267462152#1 -1345417678 1345417676 -306641038 -673254417#1 -673254417#0" />
    </vehicle>
    <vehicle id="57" depart="25656.00" type="car">
        <route edges="747226805#0 747226805#1 327074920 1267462152#0 1267462152#1 -1345417678 1345417676 -306641038 -673254417#1 747226803#1" />
    </vehicle>
    <vehicle id="58" depart="25664.00" type="motorcycle">
        <route edges="1267653586#0 -35113196 1267462154 928038825#0 928038825#1 749986989 747226800 326849845" />
    </vehicle>
    <vehicle id="59" depart="25672.00" type="motorcycle">
        <route edges="326849846#1 1056903939 747226805#0 -35113249" />
    </vehicle>
    <vehicle id="62" depart="25696.00" type="motorcycle">
        <route edges="-1162554504 408845370 673254417#0 747226803#1 35113306 35113196 747226804 1267462152#0 1267462152#1" />
    </vehicle>
    <vehicle id="63" depart="25704.00" type="motorcycle">
        <route edges="-1267462153 -747226804 1267653586#1 1056903939 747226805#0 747226805#1" />
    </vehicle>
    <vehicle id="64" depart="25712.00" type="motorcycle">
        <route edges="747226803#1 35113306 1267462154 1267462155 -1162554504 408845370 673254417#0 673254417#1" />
    </vehicle>
    <vehicle id="65" depart="25720.00" type="motorcycle">
        <route edges="1267653586#0 747226804 1267462152#0 1267462152#1 -1345417678" />
    </vehicle>
    <vehicle id="66" depart="25728.00" type="motorcycle">
        <route edges="747226803#1 35113306 1267462154 928038825#0 928038825#1 749986989" />
    </vehicle>
    <vehicle id="67" depart="25736.00" type="motorcycle">
        <route edges="-306641038 -673254417#1 747226803#1 35113306 1267462154 1267462155 -1162554504 408845370 673254417#0 673254417#1 306641038 1345417677" />
    </vehicle>
    <vehicle id="68" depart="25744.00" type="motorcycle">
        <route edges="-1345417678 1345417676 -306641038 1267653586#0 747226804 1267462152#0 1267462152#1 408153725" />
    </vehicle>
    <vehicle id="69" depart="25752.00" type="car">
        <route edges="58871347 1267653586#0 -35113196" />
    </vehicle>
    <vehicle id="70" depart="25760.00" type="motorcycle">
        <route edges="193092895 193616433#0" />
    </vehicle>
    <vehicle id="71" depart="25768.00" type="motorcycle">
        <route edges="1267462152#0 1267462152#1 -1345417678 1345417676 -306641038 -673254417#1 747226803#1" />
    </vehicle>
    <vehicle id="74" depart="25792.00" type="truck">
        <route edges="1056903939 747226805#0 747226805#1 327074920 1267462152#0 1267462152#1" />
    </vehicle>
    <vehicle id="75" depart="25800.00" type="motorcycle">
        <route edges="928038825#1 749986989 747226800 326849845" />
    </vehicle>
    <vehicle id="76" depart="25808.00" type="motorcycle">
        <route edges="1345417677 1345417678" />
    </vehicle>
    <vehicle id="77" depart="25816.00" type="motorcycle">
        <route edges="-35113196 1267462154 928038825#0 326849846#1 1056903939 747226805#0 747226805#1 327074920 -747226804" />
    </vehicle>
    <vehicle id="79" depart="25832.00" type="motorcycle">
        <route edges="1162554504 971692799 35113306 1267462154 928038825#0 326849846#1 1056903939 747226805#0 747226805#1 327074920 -747226804" />
    </vehicle>
    <vehicle id="80" depart="25840.00" type="motorcycle">
        <route edges="-1345417678 1345417676 -306641038 1267653586#0 1267653586#1 1056903939 747226805#0 747226805#1 326770986" />
    </vehicle>
    <vehicle id="81" depart="25848.00" type="motorcycle">
        <route edges="1162554504 971692799 35113306 1267462154 928038825#0 326849846#1 1056903939 747226805#0" />
    </vehicle>
    <vehicle id="82" depart="25856.00" type="motorcycle">
        <route edges="747226803#0 747226803#1 35113306 35113196 747226804 1267462152#0 1267462152#1 -1345417678" />
    </vehicle>
    <vehicle id="83" depart="25864.00" type="motorcycle">
        <route edges="1267006215 747226800 326849846#0" />
    </vehicle>
    <vehicle id="84" depart="25872.00" type="motorcycle">
        <route edges="1162554504 971692799 35113306 1267462154 1267462155 -1162554504 408845370 673254417#0 673254417#1 1267653586#0 -35113196" />
    </vehicle>
    <vehicle id="86" depart="25888.00" type="motorcycle">
        <route edges="193092895 193616433#0 193616433#1 193616433#2 608262688 749986989 747226800 326849845 408845370" />
    </vehicle>
    <vehicle id="87" depart="25896.00" type="car">
        <route edges="673254417#0 747226803#1 35113306 35113196 747226804 1267462152#0 1267462152#1 -1345417678 1345417676 -306641038 -673254417#1 -673254417#0" />
    </vehicle>
    <vehicle id="88" depart="25904.00" type="motorcycle">
        <route edges="-35112848 1267462152#1 1336695528 1336695527" />
    </vehicle>
    <vehicle id="92" depart="25936.00" type="motorcycle">
        <route edges="1336695529 -1336695528 -1345417678 1345417676 -306641038 1267653586#0 747226804 1267462153" />
    </vehicle>
    <vehicle id="93" depart="25944.00" type="motorcycle">
        <route edges="747226803#0 747226803#1 35113306 1267462154 928038825#0 326849846#1 1056903939" />
    </vehicle>
    <vehicle id="94" depart="25952.00" type="motorcycle">
        <route edges="1056903938 747226805#0 747226805#1 327074920 1267462152#0 1267462152#1 1336695528" />
    </vehicle>
    <vehicle id="95" depart="25960.00" type="bus">
        <route edges="1345417676 -306641038 -673254417#1 747226803#1 35113306 1267462154 928038825#0 928038825#1 749986989 747226800 326849845 1162554504" />
    </vehicle>
    <vehicle id="96" depart="25968.00" type="car">
        <route edges="1267006215 747226800 326849846#0 326849846#1 1056903939 747226805#0 747226805#1" />
    </vehicle>
    <vehicle id="99" depart="25992.00" type="motorcycle">
        <route edges="928038825#1 749986989 747226800 326849845 408845370 673254417#0 673254417#1" />
    </vehicle>
    <vehicle id="100" depart="26000.00" type="car">
        <route edges="928038825#0 326849846#1 1056903939 747226805#0 747226805#1" />
    </vehicle>
    <vehicle id="102" depart="26016.00" type="motorcycle">
        <route edges="193616433#0 193616433#1 193616433#2 608262688 749986989 747226800 326849846#0 326849846#1 1056903939 747226805#0 747226805#1 327074920 -747226804" />
    </vehicle>
    <vehicle id="103" depart="26024.00" type="car">
        <route edges="1336695529 -1336695528 -1345417678" />
    </vehicle>
    <vehicle id="105" depart="26040.00" type="motorcycle">
        <route edges="1267462152#0 1267462152#1 -1345417678 1345417676 -306641038 -673254417#1 747226803#1 35113306 1267462154 1267462155 -1162554504 408845370" />
    </vehicle>
    <vehicle id="107" depart="26056.00" type="car">
        <route edges="749986989 747226800 326849846#0 928038825#1" />
    </vehicle>
    <vehicle id="109" depart="26072.00" type="motorcycle">
        <route edges="-747226804 1267653586#1 1056903939 747226805#0 747226805#1 327074920 1267462152#0" />
    </vehicle>
    <vehicle id="113" depart="26104.00" type="motorcycle">
        <route edges="193616433#1 193616433#2 608262688 749986989 747226800" />
    </vehicle>
    <vehicle id="114" depart="26112.00" type="motorcycle">
        <route edges="-747226804 -35113196 1267462154 928038825#0 928038825#1 749986989" />
    </vehicle>
    <vehicle id="115" depart="26120.00" type="motorcycle">
        <route edges="-306641038 -673254417#1 -673254417#0" />
    </vehicle>
    <vehicle id="116" depart="26128.00" type="motorcycle">
        <route edges="326849846#0 326849846#1" />
    </vehicle>
    <vehicle id="117" depart="26136.00" type="motorcycle">
        <route edges="1267006215 747226800 326849845 408845370 673254417#0 673254417#1 1267653586#0 -35113196" />
    </vehicle>
    <vehicle id="118" depart="26144.00" type="motorcycle">
        <route edges="747226804 1267462152#0 1267462152#1 -1345417678 1345417676 -306641038 1267653586#0 1267653586#1 1056903939" />
    </vehicle>
    <vehicle id="119" depart="26152.00" type="motorcycle">
        <route edges="326849846#0 326849846#1 1056903939 747226805#0 747226805#1 326770986" />
    </vehicle>
    <vehicle id="121" depart="26168.00" type="motorcycle">
        <route edges="193616433#2 608262688 749986989 747226800 326849846#0 326849846#1 1056903939 747226805#0 747226805#1" />
    </vehicle>
    <vehicle id="122" depart="26176.00" type="car">
        <route edges="1056903939 747226805#0 747226805#1 327074920 1267462152#0 35112848" />
    </vehicle>
    <vehicle id="123" depart="26184.00" type="motorcycle">
        <route edges="1267006215 747226800 326849846#0 326849846#1 1267653586#2" />
    </vehicle>
    <vehicle id="124" depart="26192.00" type="motorcycle">
        <route edges="35113196 747226804 1267462152#0" />
    </vehicle>
    <vehicle id="125" depart="26200.00" type="motorcycle">
        <route edges="1267653586#1 1056903939 747226805#0 747226805#1 327074920 1267462152#0 1267462152#1 408153725" />
    </vehicle>
    <vehicle id="126" depart="26208.00" type="motorcycle">
        <route edges="-1345417678 1345417676 -306641038 1267653586#0 747226804 1267462152#0 1267462152#1 1336695528" />
    </vehicle>
    <vehicle id="127" depart="26216.00" type="motorcycle">
        <route edges="928038825#1" />
    </vehicle>
    <vehicle id="128" depart="26224.00" type="motorcycle">
        <route edges="-1345417678 1345417676 -306641038 1267653586#0 1267653586#1 1056903939 747226805#0 747226805#1 327074920 -747226804" />
    </vehicle>
    <vehicle id="129" depart="26232.00" type="motorcycle">
        <route edges="1267462152#0 1267462152#1 -1345417678 1345417676 -306641038 1267653586#0 1267653586#1 1056903939 747226805#0 747226805#1" />
    </vehicle>
    <vehicle id="130" depart="26240.00" type="car">
        <route edges="747226803#1" />
    </vehicle>
    <vehicle id="132" depart="26256.00" type="motorcycle">
        <route edges="747226800 326849846#0 326849846#1 1056903939 747226805#0 747226805#1 327074920" />
    </vehicle>
    <vehicle id="133" depart="26264.00" type="motorcycle">
        <route edges="326849846#1 1267653586#2 608262688 749986989 747226800 326849846#0 928038825#1" />
    </vehicle>
    <vehicle id="134" depart="26272.00" type="motorcycle">
        <route edges="35113196 1267653586#1 1056903939 -1056903938" />
    </vehicle>
    <vehicle id="135" depart="26280.00" type="car">
        <route edges="673254417#1 1267653586#0 747226804 1267462152#0" />
    </vehicle>
    <vehicle id="136" depart="26288.00" type="bus">
        <route edges="35113196 1267653586#1 1056903939 747226805#0 747226805#1" />
    </vehicle>
    <vehicle id="137" depart="26296.00" type="motorcycle">
        <route edges="-35113196" />
    </vehicle>
    <vehicle id="139" depart="26312.00" type="motorcycle">
        <route edges="1267462152#1 -1345417678 1345417676 -306641038 -673254417#1 747226803#1 35113306 1267462154 1267462155 -1162554504 408845370 673254417#0 673254417#1 306641038" />
    </vehicle>
    <vehicle id="141" depart="26328.00" type="car">
        <route edges="327074920 1267462152#0 1267462152#1 408153725 1125370519" />
    </vehicle>
    <vehicle id="142" depart="26336.00" type="motorcycle">
        <route edges="193616433#0 193616433#1 193616433#2 608262688 749986989 747226800 326849846#0 326849846#1 1056903939 747226805#0" />
    </vehicle>
    <vehicle id="143" depart="26344.00" type="motorcycle">
        <route edges="747226800 326849846#0 326849846#1 1056903939 747226805#0 747226805#1 327074920 1267462152#0 1267462152#1 -1345417678 1345417676 -306641038" />
    </vehicle>
    <vehicle id="145" depart="26360.00" type="motorcycle">
        <route edges="-1162554504 408845370" />
    </vehicle>
    <vehicle id="146" depart="26368.00" type="motorcycle">
        <route edges="35112983 193616433#2 608262688 749986989 747226800 326849846#0 326849846#1 1056903939 747226805#0 747226805#1 327074920 1267462152#0 1267462152#1 408153725 1125370519" />
    </vehicle>
    <vehicle id="149" depart="26392.00" type="motorcycle">
        <route edges="-1345417678 1345417676 -306641038 -673254417#1 747226803#1" />
    </vehicle>
    <vehicle id="152" depart="26416.00" type="car">
        <route edges="-673254417#1 747226803#1 35113306 1267462154 1267462155 -1162554504 408845370 673254417#0 673254417#1 1267653586#0 -35113196" />
    </vehicle>
    <vehicle id="153" depart="26424.00" type="motorcycle">
        <route edges="1267653586#1 1056903939 747226805#0 747226805#1 327074920 1267462152#0 1267462152#1 -1345417678 1345417676 -306641038 1267653586#0 747226804" />
    </vehicle>
    <vehicle id="154" depart="26432.00" type="motorcycle">
        <route edges="673254417#0 747226803#1 35113306 1267462154 928038825#0 928038825#1 749986989 747226800" />
    </vehicle>
    <vehicle id="155" depart="26440.00" type="motorcycle">
        <route edges="747226804 1267462152#0 1267462152#1 -1345417678 1345417676 -306641038 -673254417#1" />
    </vehicle>
    <vehicle id="157" depart="26456.00" type="motorcycle">
        <route edges="608262688 749986989 747226800 326849845 408845370 673254417#0 747226803#1" />
    </vehicle>
    <vehicle id="158" depart="26464.00" type="motorcycle">
        <route edges="1345417676 -306641038 1267653586#0 1267653586#1 1056903939 747226805#0 747226805#1 326770986" />
    </vehicle>
    <vehicle id="159" depart="26472.00" type="motorcycle">
        <route edges="-747226804 1267653586#1 1056903939 747226805#0 747226805#1" />
    </vehicle>
    <vehicle id="160" depart="26480.00" type="car">
        <route edges="747226803#0 747226803#1 35113306 1267462154 928038825#0" />
    </vehicle>
    <vehicle id="161" depart="26488.00" type="motorcycle">
        <route edges="673254417#1 1267653586#0 -35113196 1267462154 1267462155 -1162554504 408845370 673254417#0 747226803#1" />
    </vehicle>
    <vehicle id="162" depart="26496.00" type="motorcycle">
        <route edges="-1267462153 -747226804 -35113196 1267462154 1267462155 971692799 35113306 35113196" />
    </vehicle>
    <vehicle id="163" depart="26504.00" type="car">
        <route edges="1267653586#2 608262688 749986989 747226800 326849846#0 326849846#1 1056903939 747226805#0 747226805#1" />
    </vehicle>
    <vehicle id="164" depart="26512.00" type="motorcycle">
        <route edges="673254417#0 747226803#1 35113306 1267462154 928038825#0 928038825#1 749986989 747226800" />
    </vehicle>
    <vehicle id="165" depart="26520.00" type="motorcycle">
        <route edges="673254417#1 306641038 1345417677 1345417678 408153725 1125370519" />
    </vehicle>
    <vehicle id="167" depart="26536.00" type="motorcycle">
        <route edges="747226803#1 35113306 1267462154 928038825#0 928038825#1 749986989 747226800" />
    </vehicle>
    <vehicle id="168" depart="26544.00" type="motorcycle">
        <route edges="1162554504 971692799 35113306 1267462154 1267462155 -1162554504 408845370 673254417#0" />
    </vehicle>
    <vehicle id="170" depart="26560.00" type="motorcycle">
        <route edges="673254417#0 747226803#1 35113306 1267462154 928038825#0 326849846#1 1056903939 747226805#0 747226805#1 327074920 -747226804" />
    </vehicle>
    <vehicle id="171" depart="26568.00" type="motorcycle">
        <route edges="-1267462153 1267462152#0 1267462152#1 -1345417678 1345417676 -306641038 -673254417#1" />
    </vehicle>
    <vehicle id="172" depart="26576.00" type="motorcycle">
        <route edges="1267653586#2 608262688 749986989 747226800" />
    </vehicle>
    <vehicle id="173" depart="26584.00" type="motorcycle">
        <route edges="928038825#0 928038825#1 749986989 747226800 326849845 1162554504" />
    </vehicle>
    <vehicle id="174" depart="26592.00" type="motorcycle">
        <route edges="35112983 193616433#2 608262688 749986989 747226800 326849846#0 326849846#1 1267653586#2" />
    </vehicle>
    <vehicle id="177" depart="26616.00" type="motorcycle">
        <route edges="928038825#0 326849846#1 1056903939 747226805#0 747226805#1 327074920 1267462152#0 1267462152#1 -1345417678 1345417676 -306641038 -673254417#1 -673254417#0" />
    </vehicle>
    <vehicle id="178" depart="26624.00" type="bus">
        <route edges="928038825#0 326849846#1 1056903939 747226805#0 747226805#1 327074920 1267462152#0 1267462152#1 408153725 1125370519" />
    </vehicle>
    <vehicle id="179" depart="26632.00" type="motorcycle">
        <route edges="-35112848 1267462152#1 1336695528 1336695527" />
    </vehicle>
    <vehicle id="181" depart="26648.00" type="motorcycle">
        <route edges="326849846#1 1267653586#2 608262688 749986989 747226800 326849845 408845370 673254417#0 673254417#1 306641038 1345417677 1345417678" />
    </vehicle>
    <vehicle id="183" depart="26664.00" type="motorcycle">
        <route edges="1267462152#0 1267462152#1 -1345417678 1345417676 -306641038 1267653586#0 1267653586#1 1056903939 747226805#0 747226805#1 327074920" />
    </vehicle>
    <vehicle id="184" depart="26672.00" type="motorcycle">
        <route edges="-1162554504 408845370 673254417#0 747226803#1 35113306 1267462154 928038825#0 326849846#1 1056903939 747226805#0 747226805#1" />
    </vehicle>
    <vehicle id="185" depart="26680.00" type="motorcycle">
        <route edges="193616433#2 608262688 749986989 747226800 326849846#0 326849846#1 1056903939 747226805#0 747226805#1 327074920 1267462152#0 35112848" />
    </vehicle>
    <vehicle id="186" depart="26688.00" type="truck">
        <route edges="408845370 673254417#0 747226803#1 35113306 1267462154 928038825#0 928038825#1 749986989 747226800 326849846#0" />
    </vehicle>
    <vehicle id="187" depart="26696.00" type="motorcycle">
        <route edges="1275903827 327074920 1267462152#0 1267462152#1 -1345417678" />
    </vehicle>
    <vehicle id="188" depart="26704.00" type="motorcycle">
        <route edges="35113196 747226804 1267462153" />
    </vehicle>
    <vehicle id="189" depart="26712.00" type="motorcycle">
        <route edges="1267653586#1 1267653586#2 608262688 749986989 747226800" />
    </vehicle>
    <vehicle id="192" depart="26736.00" type="car">
        <route edges="1336695529 -1336695528 -1345417678 1345417676 -306641038 1267653586#0 747226804 1267462152#0" />
    </vehicle>
    <vehicle id="194" depart="26752.00" type="motorcycle">
        <route edges="747226805#1 327074920 -747226804 -35113196 1267462154 928038825#0 326849846#1" />
    </vehicle>
    <vehicle id="195" depart="26760.00" type="motorcycle">
        <route edges="747226804 1267462152#0 1267462152#1 -1345417678 1345417676 -306641038 1267653586#0 1267653586#1 1056903939 747226805#0 747226805#1 326770986" />
    </vehicle>
    <vehicle id="197" depart="26776.00" type="car">
        <route edges="-1162554504 408845370 673254417#0 747226803#1 35113306 1267462154 928038825#0 928038825#1 749986989 747226800 326849845 1162554504" />
    </vehicle>
    <vehicle id="199" depart="26792.00" type="motorcycle">
        <route edges="35113196 747226804 1267462152#0 1267462152#1 -1345417678 1345417676" />
    </vehicle>
    <vehicle id="201" depart="26808.00" type="car">
        <route edges="193092895 1275903827 327074920 1267462152#0 1267462152#1 -1345417678 1345417676 -306641038 1267653586#0 747226804" />
    </vehicle>
    <vehicle id="203" depart="26824.00" type="car">
        <route edges="-306641038 -673254417#1 747226803#1 35113306 1267462154 1267462155 -1162554504 408845370 673254417#0 673254417#1 306641038 1345417677 1345417678" />
    </vehicle>
    <vehicle id="204" depart="26832.00" type="motorcycle">
        <route edges="327074920 1267462153" />
    </vehicle>
    <vehicle id="205" depart="26840.00" type="motorcycle">
        <route edges="673254417#1 306641038 1345417677 1345417678 408153725" />
    </vehicle>
    <vehicle id="206" depart="26848.00" type="motorcycle">
        <route edges="35113196 1267653586#1 1056903939 747226805#0 747226805#1 327074920 -747226804" />
    </vehicle>
    <vehicle id="207" depart="26856.00" type="car">
        <route edges="1056903939 747226805#0 747226805#1 327074920 -747226804 -35113196 1267462154 1267462155 -1162554504" />
    </vehicle>
    <vehicle id="208" depart="26864.00" type="motorcycle">
        <route edges="1267006215 747226800 326849846#0 326849846#1 1056903939 747226805#0 747226805#1 327074920 1267462152#0 1267462152#1 -1345417678 1345417676" />
    </vehicle>
    <vehicle id="209" depart="26872.00" type="motorcycle">
        <route edges="747226803#0 747226803#1 35113306 35113196 747226804 1267462152#0 1267462152#1 -1345417678" />
    </vehicle>
    <vehicle id="210" depart="26880.00" type="car">
        <route edges="1345417676 -306641038 1267653586#0 1267653586#1 1056903939 747226805#0 747226805#1 326770986" />
    </vehicle>
    <vehicle id="211" depart="26888.00" type="motorcycle">
        <route edges="1056903939 747226805#0 747226805#1 327074920" />
    </vehicle>
    <vehicle id="212" depart="26896.00" type="motorcycle">
        <route edges="193616433#0 193616433#1 193616433#2 608262688 749986989 747226800 326849846#0 326849846#1 1056903939" />
    </vehicle>
    <vehicle id="213" depart="26904.00" type="motorcycle">