<?xml version='1.0' encoding='utf-8'?>
<routes><vType id="motorcycle" vClass="motorcycle" accel="3.0" decel="5.0" sigma="0.7" length="2.0" width="0.8" maxSpeed="16.67" color="yellow" minGap="0.5" lcAssertive="1.6" lcSpeedGain="1.6" lcStrategic="1.3" lcCooperative="0.7" /><vType id="car" vClass="passenger" accel="2.5" decel="4.5" sigma="0.3" length="4.5" width="1.8" maxSpeed="13.89" color="blue" minGap="2.0" lcAssertive="1.2" lcSpeedGain="1.3" lcStrategic="1.6" lcCooperative="0.8" /><vType id="bus" vClass="bus" accel="1.5" decel="3.5" sigma="0.2" length="12.0" width="2.5" maxSpeed="11.11" color="green" minGap="3.0" lcAssertive="1.0" lcSpeedGain="1.0" lcStrategic="1.0" lcCooperative="1.0" /><vType id="truck" vClass="truck" accel="1.8" decel="4.0" sigma="0.2" length="7.5" width="2.2" maxSpeed="11.11" color="red" minGap="3.0" lcAssertive="1.0" lcSpeedGain="1.0" lcStrategic="1.0" lcCooperative="1.0" /><vehicle id="0" depart="28800.00" type="car">
        <route edges="35112983 193616433#2 608262688 749986989 747226800 326849846#0 326849846#1 1056903939 -1056903938" />
    </vehicle>
    <vehicle id="2" depart="28800.80" type="car">
        <route edges="35115376 193616433#1 193616433#2 608262688 749986989 747226800 326849846#0 326849846#1 1056903939 747226805#0 747226805#1 326770986" />
    </vehicle>
    <vehicle id="3" depart="28801.20" type="motorcycle">
        <route edges="747226803#0 747226803#1 35113306 35113196 747226804 1267462152#0 1267462152#1 -1345417678 1345417676 -306641038" />
    </vehicle>
    <vehicle id="4" depart="28801.60" type="motorcycle">
        <route edges="1345417676 -306641038 1267653586#0 1267653586#1 1056903939 -1056903938" />
    </vehicle>
    <vehicle id="5" depart="28802.00" type="car">
        <route edges="1056903939 747226805#0 747226805#1 327074920 1267462152#0 1267462152#1 1336695528 1336695527" />
    </vehicle>
    <vehicle id="7" depart="28802.80" type="motorcycle">
        <route edges="35113196 747226804 1267462152#0 1267462152#1 -1345417678 1345417676" />
    </vehicle>
    <vehicle id="9" depart="28803.60" type="motorcycle">
        <route edges="58871347 1267653586#0 1267653586#1 1056903939 -1056903938" />
    </vehicle>
    <vehicle id="10" depart="28804.00" type="motorcycle">
        <route edges="58871347 1267653586#0 1267653586#1 1056903939 747226805#0 747226805#1 326770986" />
    </vehicle>
    <vehicle id="11" depart="28804.40" type="motorcycle">
        <route edges="1267653586#2 608262688 749986989 747226800 326849846#0 326849846#1 1056903939 747226805#0 -35113249" />
    </vehicle>
    <vehicle id="12" depart="28804.80" type="motorcycle">
        <route edges="747226805#1 327074920 1267462152#0 1267462152#1 408153725 1125370519" />
    </vehicle>
    <vehicle id="15" depart="28806.00" type="truck">
        <route edges="58871347 -673254417#1 747226803#1 35113306 1267462154 928038825#0 928038825#1 749986989 747226800 326849846#0" />
    </vehicle>
    <vehicle id="16" depart="28806.40" type="motorcycle">
        <route edges="193616433#2 608262688 749986989 747226800 326849845 1162554504 971692799 35113306 1267462154 928038825#0" />
    </vehicle>
    <vehicle id="17" depart="28806.80" type="car">
        <route edges="1336695529 -1336695528 -1345417678 1345417676" />
    </vehicle>
    <vehicle id="19" depart="28807.60" type="motorcycle">
        <route edges="747226800 326849845 408845370 673254417#0 673254417#1 306641038 1345417677 1345417678" />
    </vehicle>
    <vehicle id="20" depart="28808.00" type="motorcycle">
        <route edges="35115376 193616433#1 193616433#2 608262688 749986989 747226800 326849845 1162554504 971692799 35113306 1267462154 1267462155 -1162554504" />
    </vehicle>
    <vehicle id="21" depart="28808.40" type="motorcycle">
        <route edges="1056903939 747226805#0 747226805#1 327074920 -747226804" />
    </vehicle>
    <vehicle id="22" depart="28808.80" type="motorcycle">
        <route edges="-1345417678 1345417676 -306641038 -673254417#1 -673254417#0" />
    </vehicle>
    <vehicle id="23" depart="28809.20" type="motorcycle">
        <route edges="-35112848 1267462152#1 -1345417678 1345417676 -306641038 -673254417#1" />
    </vehicle>
    <vehicle id="24" depart="28809.60" type="car">
        <route edges="35112983 193616433#2 608262688 749986989 747226800 326849845 1162554504" />
    </vehicle>
    <vehicle id="26" depart="28810.40" type="motorcycle">
        <route edges="1267006215 747226800 326849846#0 326849846#1 1056903939 747226805#0" />
    </vehicle>
    <vehicle id="28" depart="28811.20" type="motorcycle">
        <route edges="-747226804 -35113196 1267462154 928038825#0 928038825#1 749986989 747226800 326849845" />
    </vehicle>
    <vehicle id="29" depart="28811.60" type="motorcycle">
        <route edges="-747226804 1267653586#1 1056903939 747226805#0 747226805#1 327074920 1267462152#0 1267462152#1" />
    </vehicle>
    <vehicle id="31" depart="28812.40" type="bus">
        <route edges="326849845 1162554504 971692799 35113306 1267462154 928038825#0 326849846#1 1056903939 747226805#0 747226805#1 326770986" />
    </vehicle>
    <vehicle id="32" depart="28812.80" type="car">
        <route edges="673254417#1 1267653586#0 747226804 1267462152#0 35112848" />
    </vehicle>
    <vehicle id="33" depart="28813.20" type="motorcycle">
        <route edges="1056903939 -1056903938" />
    </vehicle>
    <vehicle id="34" depart="28813.60" type="motorcycle">
        <route edges="1267653586#0 747226804 1267462152#0 1267462152#1 -1345417678 1345417676 -306641038 -673254417#1 -673254417#0" />
    </vehicle>
    <vehicle id="35" depart="28814.00" type="motorcycle">
        <route edges="1056903938 747226805#0" />
    </vehicle>
    <vehicle id="36" depart="28814.40" type="motorcycle">
        <route edges="747226803#0 673254417#1 306641038 1345417677 1345417678 408153725 1125370519" />
    </vehicle>
    <vehicle id="37" depart="28814.80" type="motorcycle">
        <route edges="35113196 747226804 1267462153" />
    </vehicle>
    <vehicle id="38" depart="28815.20" type="motorcycle">
        <route edges="747226803#1 35113306 35113196 1267653586#1" />
    </vehicle>
    <vehicle id="39" depart="28815.60" type="motorcycle">
        <route edges="1267006215 747226800 326849846#0 326849846#1 1056903939 747226805#0 747226805#1 327074920 1267462152#0 1267462152#1 -1345417678 1345417676 -306641038 -673254417#1 -673254417#0" />
    </vehicle>
    <vehicle id="40" depart="28816.00" type="motorcycle">
        <route edges="326849845 1162554504 971692799 35113306 35113196 747226804 1267462152#0 1267462152#1 -1345417678 1345417676 -306641038 -673254417#1 -673254417#0" />
    </vehicle>
    <vehicle id="41" depart="28816.40" type="motorcycle">
        <route edges="326849846#1 1267653586#2 608262688 749986989 747226800" />
    </vehicle>
    <vehicle id="43" depart="28817.20" type="motorcycle">
        <route edges="928038825#1 749986989 747226800 326849845 408845370 673254417#0 673254417#1 306641038 1345417677 1345417678 1336695528 1336695527" />
    </vehicle>
    <vehicle id="44" depart="28817.60" type="motorcycle">
        <route edges="-306641038 -673254417#1 747226803#1 35113306 1267462154 1267462155 -1162554504" />
    </vehicle>
    <vehicle id="46" depart="28818.40" type="motorcycle">
        <route edges="58871347 1267653586#0 747226804 1267462153" />
    </vehicle>
    <vehicle id="47" depart="28818.80" type="motorcycle">
        <route edges="-1336695528 -1345417678 1345417676 -306641038 1267653586#0 747226804 1267462152#0 1267462152#1" />
    </vehicle>
    <vehicle id="48" depart="28819.20" type="motorcycle">
        <route edges="928038825#1 749986989 747226800 326849845 408845370 673254417#0 673254417#1 306641038 1345417677 1345417678 1336695528" />
    </vehicle>
    <vehicle id="49" depart="28819.60" type="car">
        <route edges="749986989 747226800 326849846#0 326849846#1 1267653586#2 608262688" />
    </vehicle>
    <vehicle id="50" depart="28820.00" type="motorcycle">
        <route edges="-1162554504 408845370 673254417#0 747226803#1 35113306 1267462154 928038825#0 928038825#1 749986989 747226800 326849845" />
    </vehicle>
    <vehicle id="51" depart="28820.40" type="car">
        <route edges="35113249 747226805#1 327074920 1267462152#0 1267462152#1 1336695528" />
    </vehicle>
    <vehicle id="53" depart="28821.20" type="motorcycle">
        <route edges="-35112848 1267462152#1 -1345417678 1345417676 -306641038 1267653586#0" />
    </vehicle>
    <vehicle id="55" depart="28822.00" type="car">
        <route edges="747226803#0 -673254417#0" />
    </vehicle>
    <vehicle id="56" depart="28822.40" type="motorcycle">
        <route edges="193616433#0 193616433#1 193616433#2 608262688 749986989 747226800 326849846#0 326849846#1 1056903939 747226805#0 -35113249" />
    </vehicle>
    <vehicle id="57" depart="28822.80" type="car">
        <route edges="747226803#1 35113306 1267462154 1267462155 -1162554504 408845370 673254417#0" />
    </vehicle>
    <vehicle id="59" depart="28823.60" type="truck">
        <route edges="35112983 193616433#2 608262688 749986989 747226800 326849846#0 326849846#1 1056903939 747226805#0 -35113249" />
    </vehicle>
    <vehicle id="60" depart="28824.00" type="motorcycle">
        <route edges="408845370 673254417#0 673254417#1 306641038 1345417677 1345417678 1336695528" />
    </vehicle>
    <vehicle id="61" depart="28824.40" type="bus">
        <route edges="58871347 306641038 1345417677 1345417678 1336695528" />
    </vehicle>
    <vehicle id="62" depart="28824.80" type="motorcycle">
        <route edges="-1162554504 408845370 673254417#0 673254417#1 306641038 1345417677 1345417678 408153725 1125370519" />
    </vehicle>
    <vehicle id="63" depart="28825.20" type="motorcycle">
        <route edges="-1267462153 1267462152#0 1267462152#1 -1345417678 1345417676 -306641038 1267653586#0 747226804" />
    </vehicle>
    <vehicle id="64" depart="28825.60" type="motorcycle">
        <route edges="747226803#0 673254417#1 306641038 1345417677 1345417678 408153725" />
    </vehicle>
    <vehicle id="66" depart="28826.40" type="motorcycle">
        <route edges="747226803#0 747226803#1 35113306 1267462154 928038825#0 326849846#1 1056903939 747226805#0 747226805#1" />
    </vehicle>
    <vehicle id="68" depart="28827.20" type="motorcycle">
        <route edges="-1345417678 1345417676 -306641038 1267653586#0 1267653586#1 1056903939 747226805#0 747226805#1 327074920" />
    </vehicle>
    <vehicle id="70" depart="28828.00" type="truck">
        <route edges="193092895 1275903827 327074920 1267462152#0 1267462152#1 -1345417678 1345417676" />
    </vehicle>
    <vehicle id="71" depart="28828.40" type="motorcycle">
        <route edges="1267006215 747226800 326849845 408845370 673254417#0" />
    </vehicle>
    <vehicle id="73" depart="28829.20" type="car">
        <route edges="193616433#2 608262688 749986989 747226800 326849846#0" />
    </vehicle>
    <vehicle id="74" depart="28829.60" type="motorcycle">
        <route edges="1056903938 747226805#0 747226805#1 327074920 1267462152#0 1267462152#1 408153725 1125370519" />
    </vehicle>
    <vehicle id="76" depart="28830.40" type="motorcycle">
        <route edges="1345417677 1345417678 1336695528 1336695527" />
    </vehicle>
    <vehicle id="81" depart="28832.40" type="motorcycle">
        <route edges="1056903939 747226805#0 747226805#1 327074920 1267462152#0 1267462152#1 -1345417678 1345417676 -306641038 -673254417#1 747226803#1" />
    </vehicle>
    <vehicle id="82" depart="28832.80" type="motorcycle">
        <route edges="747226800 326849846#0 326849846#1 1056903939 747226805#0 747226805#1 327074920 1267462152#0 1267462152#1 -1345417678" />
    </vehicle>
    <vehicle id="83" depart="28833.20" type="motorcycle">
        <route edges="1162554504 971692799 35113306 1267462154 1267462155 -1162554504 408845370 673254417#0 673254417#1 306641038" />
    </vehicle>
    <vehicle id="85" depart="28834.00" type="motorcycle">
        <route edges="747226805#0 747226805#1 327074920 -747226804 -35113196 1267462154 1267462155 -1162554504 408845370 673254417#0 673254417#1 306641038 1345417677 1345417678" />
    </vehicle>
    <vehicle id="86" depart="28834.40" type="motorcycle">
        <route edges="193092895 1275903827 327074920 1267462152#0 35112848" />
    </vehicle>
    <vehicle id="88" depart="28835.20" type="motorcycle">
        <route edges="-35112848 1267462152#1 -1345417678 1345417676 -306641038 1267653586#0 747226804 1267462153" />
    </vehicle>
    <vehicle id="89" depart="28835.60" type="motorcycle">
        <route edges="1345417676 -306641038 1267653586#0 1267653586#1 1267653586#2" />
    </vehicle>
    <vehicle id="90" depart="28836.00" type="car">
        <route edges="35115376 193616433#1 193616433#2 608262688 749986989 747226800 326849845 408845370 673254417#0 673254417#1 306641038" />
    </vehicle>
    <vehicle id="92" depart="28836.80" type="car">
        <route edges="1336695529 -1336695528 408153725 1125370519" />
    </vehicle>
    <vehicle id="93" depart="28837.20" type="motorcycle">
        <route edges="747226800 326849846#0 326849846#1 1056903939 747226805#0 747226805#1 327074920 1267462152#0 1267462152#1 -1345417678 1345417676 -306641038 -673254417#1 -673254417#0" />
    </vehicle>
    <vehicle id="94" depart="28837.60" type="motorcycle">
        <route edges="1056903938 747226805#0 747226805#1 327074920 -747226804 1267653586#1" />
    </vehicle>
    <vehicle id="95" depart="28838.00" type="motorcycle">
        <route edges="1345417676 -306641038 -673254417#1" />
    </vehicle>
    <vehicle id="96" depart="28838.40" type="car">
        <route edges="1267006215 747226800 326849845 1162554504 971692799 35113306 35113196 747226804" />
    </vehicle>
    <vehicle id="99" depart="28839.60" type="motorcycle">
        <route edges="928038825#1 749986989 747226800 326849846#0 326849846#1 1056903939 747226805#0 747226805#1 327074920 1267462152#0 1267462152#1 408153725" />
    </vehicle>
    <vehicle id="100" depart="28840.00" type="motorcycle">
        <route edges="749986989 747226800 326849845 1162554504 971692799 35113306 35113196 747226804" />
    </vehicle>
    <vehicle id="101" depart="28840.40" type="motorcycle">
        <route edges="673254417#1 1267653586#0 1267653586#1 1056903939 747226805#0 -35113249" />
    </vehicle>
    <vehicle id="102" depart="28840.80" type="motorcycle">
        <route edges="193092895 193616433#0 -35115376" />
    </vehicle>
    <vehicle id="103" depart="28841.20" type="motorcycle">
        <route edges="1336695529 -1336695528" />
    </vehicle>
    <vehicle id="104" depart="28841.60" type="motorcycle">
        <route edges="1336695529 -1336695528 -1345417678 1345417676 -306641038 -673254417#1 747226803#1 35113306 1267462154 928038825#0" />
    </vehicle>
    <vehicle id="105" depart="28842.00" type="motorcycle">
        <route edges="1267006215 747226800 326849846#0 326849846#1 1056903939 747226805#0 747226805#1 327074920 1267462152#0 35112848" />
    </vehicle>
    <vehicle id="107" depart="28842.80" type="car">
        <route edges="747226805#1 327074920 -747226804 -35113196 1267462154 928038825#0 928038825#1" />
    </vehicle>
    <vehicle id="108" depart="28843.20" type="motorcycle">
        <route edges="326849845" />
    </vehicle>
    <vehicle id="109" depart="28843.60" type="car">
        <route edges="-673254417#1 747226803#1 35113306 1267462154 928038825#0 326849846#1 1056903939 747226805#0 747226805#1 327074920 -747226804" />
    </vehicle>
    <vehicle id="110" depart="28844.00" type="motorcycle">
        <route edges="749986989 747226800 326849845 408845370 673254417#0 673254417#1 306641038 1345417677 1345417678" />
    </vehicle>
    <vehicle id="113" depart="28845.20" type="motorcycle">
        <route edges="193616433#0 193616433#1 193616433#2 608262688" />
    </vehicle>
    <vehicle id="114" depart="28845.60" type="car">
        <route edges="-673254417#1 747226803#1 35113306 1267462154 928038825#0 928038825#1 749986989" />
    </vehicle>
    <vehicle id="115" depart="28846.00" type="motorcycle">
        <route edges="-1345417678 1345417676 -306641038 1267653586#0 1267653586#1 1056903939 747226805#0 -35113249" />
    </vehicle>
    <vehicle id="116" depart="28846.40" type="motorcycle">
        <route edges="327074920 -747226804 -35113196 1267462154 1267462155 -1162554504 408845370 673254417#0 673254417#1 306641038" />
    </vehicle>
    <vehicle id="118" depart="28847.20" type="motorcycle">
        <route edges="747226803#0 -673254417#0" />
    </vehicle>
    <vehicle id="121" depart="28848.40" type="motorcycle">
        <route edges="193616433#1 193616433#2 608262688 749986989 747226800 326849846#0 326849846#1 1056903939 747226805#0" />
    </vehicle>
    <vehicle id="122" depart="28848.80" type="motorcycle">
        <route edges="1056903938 747226805#0 747226805#1 326770986" />
    </vehicle>
    <vehicle id="123" depart="28849.20" type="car">
        <route edges="1162554504 971692799 35113306 35113196 747226804 1267462153" />
    </vehicle>
    <vehicle id="124" depart="28849.60" type="motorcycle">
        <route edges="35113249 747226805#1 327074920 -747226804 1267653586#1 1056903939" />
    </vehicle>
    <vehicle id="125" depart="28850.00" type="motorcycle">
        <route edges="1267653586#0 -35113196 1267462154 928038825#0 326849846#1" />
    </vehicle>
    <vehicle id="126" depart="28850.40" type="car">
        <route edges="-1345417678 1345417676 -306641038 1267653586#0 1267653586#1" />
    </vehicle>
    <vehicle id="127" depart="28850.80" type="car">
        <route edges="928038825#1" />
    </vehicle>
    <vehicle id="129" depart="28851.60" type="motorcycle">
        <route edges="1267006215 747226800 326849846#0 326849846#1 1056903939 747226805#0" />
    </vehicle>
    <vehicle id="130" depart="28852.00" type="motorcycle">
        <route edges="747226803#0 673254417#1" />
    </vehicle>
    <vehicle id="132" depart="28852.80" type="motorcycle">
        <route edges="673254417#0 747226803#1 35113306 1267462154 928038825#0 326849846#1 1056903939 747226805#0 747226805#1 326770986" />
    </vehicle>
    <vehicle id="133" depart="28853.20" type="car">
        <route edges="35112983 193616433#2 608262688 749986989 747226800 326849846#0 928038825#1" />
    </vehicle>
    <vehicle id="134" depart="28853.60" type="car">
        <route edges="35113196 1267653586#1 1056903939 -1056903938" />
    </vehicle>
    <vehicle id="135" depart="28854.00" type="motorcycle">
        <route edges="608262688 749986989 747226800 326849846#0 326849846#1 1056903939" />
    </vehicle>
    <vehicle id="136" depart="28854.40" type="motorcycle">
        <route edges="35113249 747226805#1 327074920 -747226804 1267653586#1 1056903939 747226805#0" />
    </vehicle>
    <vehicle id="138" depart="28855.20" type="motorcycle">
        <route edges="-35112848 1267462152#1 -1345417678 1345417676" />
    </vehicle>
    <vehicle id="141" depart="28856.40" type="car">
        <route edges="35112983 193616433#2 608262688 749986989 747226800 326849846#0 326849846#1 1056903939 747226805#0 747226805#1 327074920 1267462152#0 1267462152#1 -1345417678 1345417676 -306641038 -673254417#1 -673254417#0" />
    </vehicle>
    <vehicle id="142" depart="28856.80" type="car">
        <route edges="193092895 193616433#0 193616433#1 193616433#2 608262688 749986989 747226800" />
    </vehicle>
    <vehicle id="143" depart="28857.20" type="car">
        <route edges="673254417#1 1267653586#0 747226804 1267462152#0 1267462152#1 -1345417678 1345417676 -306641038" />
    </vehicle>
    <vehicle id="144" depart="28857.60" type="motorcycle">
        <route edges="1345417676 -306641038 -673254417#1" />
    </vehicle>
    <vehicle id="145" depart="28858.00" type="motorcycle">
        <route edges="-1162554504 408845370 673254417#0 747226803#1 35113306 35113196 747226804 1267462152#0 35112848" />
    </vehicle>
    <vehicle id="146" depart="28858.40" type="motorcycle">
        <route edges="35112983 193616433#2 608262688 749986989 747226800 326849846#0 326849846#1 1056903939 747226805#0 747226805#1 327074920 1267462152#0 1267462152#1 -1345417678 1345417676 -306641038 -673254417#1 -673254417#0" />
    </vehicle>
    <vehicle id="147" depart="28858.80" type="car">
        <route edges="35115376 193616433#1 193616433#2 608262688 749986989 747226800 326849846#0 326849846#1 1056903939 747226805#0 747226805#1 327074920 1267462152#0 1267462152#1 -1345417678 1345417676" />
    </vehicle>
    <vehicle id="148" depart="28859.20" type="car">
        <route edges="1345417676 -306641038 1267653586#0 1267653586#1 1056903939 -1056903938" />
    </vehicle>
    <vehicle id="149" depart="28859.60" type="motorcycle">
        <route edges="-1345417678 1345417676 -306641038 -673254417#1 747226803#1 35113306 1267462154 1267462155 -1162554504 408845370 673254417#0 673254417#1" />
    </vehicle>
    <vehicle id="150" depart="28860.00" type="motorcycle">
        <route edges="747226803#0 747226803#1 35113306 35113196 747226804 1267462152#0 1267462152#1 -1345417678 1345417676" />
    </vehicle>
    <vehicle id="153" depart="28861.20" type="motorcycle">
        <route edges="1267462152#1 -1345417678 1345417676 -306641038 -673254417#1 747226803#1 35113306 1267462154 928038825#0 928038825#1 749986989 747226800" />
    </vehicle>
    <vehicle id="154" depart="28861.60" type="motorcycle">
        <route edges="58871347 1267653586#0 1267653586#1 1267653586#2 608262688" />
    </vehicle>
    <vehicle id="157" depart="28862.80" type="car">
        <route edges="58871347 -673254417#1 747226803#1 35113306 1267462154 1267462155 -1162554504 408845370 673254417#0 673254417#1" />
    </vehicle>
    <vehicle id="159" depart="28863.60" type="motorcycle">
        <route edges="-673254417#1 747226803#1 35113306 35113196 747226804" />
    </vehicle>
    <vehicle id="160" depart="28864.00" type="motorcycle">
        <route edges="747226800 326849845 1162554504 971692799 35113306 1267462154 928038825#0" />
    </vehicle>
    <vehicle id="161" depart="28864.40" type="motorcycle">
        <route edges="58871347 -673254417#1 747226803#1 35113306 1267462154 1267462155 -1162554504 408845370 673254417#0 673254417#1" />
    </vehicle>
    <vehicle id="162" depart="28864.80" type="car">
        <route edges="-1267462153 -747226804 -35113196 1267462154 928038825#0 928038825#1 749986989 747226800 326849846#0" />
    </vehicle>
    <vehicle id="163" depart="28865.20" type="motorcycle">
        <route edges="1267653586#1 1056903939 747226805#0 747226805#1 327074920 1267462152#0 1267462152#1 -1345417678 1345417676 -306641038 1267653586#0 747226804" />
    </vehicle>
    <vehicle id="164" depart="28865.60" type="motorcycle">
        <route edges="58871347 1267653586#0 1267653586#1 1267653586#2 608262688" />
    </vehicle>
    <vehicle id="165" depart="28866.00" type="truck">
        <route edges="58871347 -673254417#1 -673254417#0" />
    </vehicle>
    <vehicle id="167" depart="28866.80" type="car">
        <route edges="747226803#0 747226803#1 35113306 1267462154 928038825#0 326849846#1 1267653586#2 608262688" />
    </vehicle>
    <vehicle id="168" depart="28867.20" type="car">
        <route edges="1056903939 747226805#0 747226805#1 327074920 1267462152#0 1267462152#1 -1345417678 1345417676 -306641038 -673254417#1 747226803#1 35113306 35113196" />
    </vehicle>
    <vehicle id="169" depart="28867.60" type="motorcycle">
        <route edges="193092895 193616433#0 193616433#1 193616433#2 608262688 749986989 747226800 326849846#0 326849846#1 1056903939" />
    </vehicle>
    <vehicle id="172" depart="28868.80" type="car">
        <route edges="1267653586#1 1267653586#2 608262688" />
    </vehicle>
    <vehicle id="173" depart="28869.20" type="motorcycle">
        <route edges="749986989 747226800 326849846#0 326849846#1 1056903939 747226805#0 747226805#1 327074920 1267462152#0 1267462152#1 -1345417678 1345417676 -306641038 -673254417#1" />
    </vehicle>
    <vehicle id="174" depart="28869.60" type="motorcycle">
        <route edges="35112983 193616433#2 608262688 749986989 747226800 326849846#0 326849846#1 1056903939 747226805#0 747226805#1 327074920 1267462153" />
    </vehicle>
    <vehicle id="175" depart="28870.00" type="motorcycle">
        <route edges="928038825#0 326849846#1 1056903939 747226805#0 747226805#1 327074920 1267462152#0 1267462152#1 1336695528" />
    </vehicle>
    <vehicle id="177" depart="28870.80" type="motorcycle">
        <route edges="749986989 747226800 326849846#0 326849846#1 1056903939 747226805#0 -35113249" />
    </vehicle>
    <vehicle id="178" depart="28871.20" type="car">
        <route edges="749986989 747226800 326849846#0 326849846#1 1056903939 747226805#0 747226805#1 327074920 1267462152#0 1267462152#1 -1345417678 1345417676 -306641038 -673254417#1 -673254417#0" />
    </vehicle>
    <vehicle id="179" depart="28871.60" type="motorcycle">
        <route edges="-35112848 1267462152#1 -1345417678 1345417676 -306641038 1267653586#0" />
    </vehicle>
    <vehicle id="180" depart="28872.00" type="motorcycle">
        <route edges="35115376 193616433#1 193616433#2 608262688 749986989 747226800 326849846#0 326849846#1 1056903939 747226805#0 747226805#1 327074920 1267462152#0 1267462152#1 408153725 1125370519" />
    </vehicle>
    <vehicle id="181" depart="28872.40" type="motorcycle">
        <route edges="327074920 1267462152#0 1267462152#1 1336695528 1336695527" />
    </vehicle>
    <vehicle id="182" depart="28872.80" type="car">
        <route edges="1336695529 -1336695528 -1345417678 1345417676 -306641038 -673254417#1 747226803#1 35113306 1267462154 1267462155 -1162554504 408845370 673254417#0 673254417#1 306641038 1345417677 1345417678" />
    </vehicle>
    <vehicle id="183" depart="28873.20" type="motorcycle">
        <route edges="1267006215 747226800 326849846#0 326849846#1 1056903939 747226805#0 747226805#1 326770986" />
    </vehicle>
    <vehicle id="184" depart="28873.60" type="motorcycle">
        <route edges="-1162554504 408845370 673254417#0 747226803#1 35113306 35113196 747226804" />
    </vehicle>
    <vehicle id="185" depart="28874.00" type="car">
        <route edges="193616433#2 608262688 749986989 747226800 326849845" />
    </vehicle>
    <vehicle id="186" depart="28874.40" type="car">
        <route edges="35115376 193616433#1 193616433#2 608262688 749986989 747226800 326849845 408845370 673254417#0 673254417#1 306641038" />
    </vehicle>
    <vehicle id="187" depart="28874.80" type="car">
        <route edges="1275903827 327074920 1267462152#0 1267462152#1 -1345417678" />
    </vehicle>
    <vehicle id="188" depart="28875.20" type="motorcycle">
        <route edges="35113249 747226805#1 327074920 1267462152#0 1267462152#1 408153725 1125370519" />
    </vehicle>
    <vehicle id="189" depart="28875.60" type="motorcycle">
        <route edges="1267653586#0 -35113196 1267462154 1267462155 -1162554504 408845370" />
    </vehicle>
    <vehicle id="190" depart="28876.00" type="motorcycle">
        <route edges="35115376 193616433#1 193616433#2 608262688 749986989 747226800 326849846#0 326849846#1 1056903939" />
    </vehicle>
    <vehicle id="191" depart="28876.40" type="car">
        <route edges="1267462152#1 -1345417678 1345417676 -306641038 1267653586#0 747226804 1267462153" />
    </vehicle>
    <vehicle id="192" depart="28876.80" type="motorcycle">
        <route edges="1336695529 -1336695528 -1345417678 1345417676 -306641038 1267653586#0 1267653586#1 1056903939 747226805#0 747226805#1 327074920 -747226804" />
    </vehicle>
    <vehicle id="193" depart="28877.20" type="car">
        <route edges="-35112848 1267462152#1 -1345417678 1345417676 -306641038 1267653586#0 747226804 1267462153" />
    </vehicle>
    <vehicle id="194" depart="28877.60" type="motorcycle">
        <route edges="747226805#0 747226805#1 326770986" />
    </vehicle>
    <vehicle id="196" depart="28878.40" type="car">
        <route edges="1267462152#1 -1345417678 1345417676" />
    </vehicle>
    <vehicle id="197" depart="28878.80" type="car">
        <route edges="-1162554504 408845370 673254417#0 747226803#1 35113306 1267462154 928038825#0 326849846#1 1056903939 747226805#0 747226805#1 327074920 -747226804" />
    </vehicle>
    <vehicle id="198" depart="28879.20" type="motorcycle">
        <route edges="1345417676 -306641038 -673254417#1 747226803#1 35113306 1267462154 1267462155 -1162554504 408845370 673254417#0 673254417#1 306641038 1345417677 1345417678" />
    </vehicle>
    <vehicle id="199" depart="28879.60" type="motorcycle">
        <route edges="35113196 1267653586#1 1267653586#2" />
    </vehicle>
    <vehicle id="201" depart="28880.40" type="motorcycle">
        <route edges="193092895 193616433#0 193616433#1 193616433#2 608262688 749986989 747226800" />
    </vehicle>
    <vehicle id="202" depart="28880.80" type="car">
        <route edges="58871347 1267653586#0 1267653586#1 1056903939 747226805#0 -35113249" />
    </vehicle>
    <vehicle id="203" depart="28881.20" type="motorcycle">
        <route edges="-306641038 1267653586#0 747226804 1267462152#0 1267462152#1 1336695528 1336695527" />
    </vehicle>
    <vehicle id="204" depart="28881.60" type="car">
        <route edges="35112983 193616433#2 608262688 749986989 747226800 326849846#0 326849846#1 1056903939 747226805#0 747226805#1 327074920 1267462152#0 1267462152#1 408153725 1125370519" />
    </vehicle>
    <vehicle id="205" depart="28882.00" type="car">
        <route edges="608262688 749986989 747226800 326849846#0 326849846#1" />
    </vehicle>
    <vehicle id="207" depart="28882.80" type="motorcycle">
        <route edges="1056903938 747226805#0 747226805#1 327074920 -747226804 1267653586#1 1056903939 -1056903938" />
    </vehicle>
    <vehicle id="209" depart="28883.60" type="motorcycle">
        <route edges="673254417#1 1267653586#0 747226804 1267462152#0 1267462152#1 -1345417678" />