<?xml version='1.0' encoding='utf-8'?>
<routes><vType id="motorcycle" vClass="motorcycle" accel="3.0" decel="5.0" sigma="0.7" length="2.0" width="0.8" maxSpeed="16.67" color="yellow" minGap="0.5" lcAssertive="1.6" lcSpeedGain="1.6" lcStrategic="1.3" lcCooperative="0.7" /><vType id="car" vClass="passenger" accel="2.5" decel="4.5" sigma="0.3" length="4.5" width="1.8" maxSpeed="13.89" color="blue" minGap="2.0" lcAssertive="1.2" lcSpeedGain="1.3" lcStrategic="1.6" lcCooperative="0.8" /><vType id="bus" vClass="bus" accel="1.5" decel="3.5" sigma="0.2" length="12.0" width="2.5" maxSpeed="11.11" color="green" minGap="3.0" lcAssertive="1.0" lcSpeedGain="1.0" lcStrategic="1.0" lcCooperative="1.0" /><vType id="truck" vClass="truck" accel="1.8" decel="4.0" sigma="0.2" length="7.5" width="2.2" maxSpeed="11.11" color="red" minGap="3.0" lcAssertive="1.0" lcSpeedGain="1.0" lcStrategic="1.0" lcCooperative="1.0" /><vehicle id="0" depart="25200.00" type="motorcycle">
        <route edges="35112983 193616433#2 608262688 749986989 747226800 326849845 1162554504 971692799 35113306 1267462154 1267462155 -1162554504" />
    </vehicle>
    <vehicle id="1" depart="25200.80" type="motorcycle">
        <route edges="1267462152#1 -1345417678 1345417676 -306641038 1267653586#0 1267653586#1 1056903939 747226805#0 747226805#1 327074920 -747226804" />
    </vehicle>
    <vehicle id="2" depart="25201.60" type="motorcycle">
        <route edges="408845370 673254417#0 747226803#1 35113306 1267462154 928038825#0 326849846#1" />
    </vehicle>
    <vehicle id="3" depart="25202.40" type="car">
        <route edges="747226804 1267462152#0 1267462152#1 -1345417678 1345417676 -306641038" />
    </vehicle>
    <vehicle id="4" depart="25203.20" type="motorcycle">
        <route edges="1345417676 -306641038 -673254417#1 747226803#1 35113306 1267462154 1267462155 -1162554504" />
    </vehicle>
    <vehicle id="5" depart="25204.00" type="car">
        <route edges="1162554504 971692799 35113306 1267462154 1267462155 -1162554504 408845370 673254417#0 673254417#1 306641038 1345417677 1345417678" />
    </vehicle>
    <vehicle id="6" depart="25204.80" type="motorcycle">
        <route edges="-1267462153 1267462152#0 1267462152#1 -1345417678 1345417676 -306641038 -673254417#1" />
    </vehicle>
    <vehicle id="9" depart="25207.20" type="motorcycle">
        <route edges="673254417#1 1267653586#0 1267653586#1 1056903939 -1056903938" />
    </vehicle>
    <vehicle id="10" depart="25208.00" type="bus">
        <route edges="673254417#0 747226803#1 35113306 1267462154 928038825#0 326849846#1 1056903939 747226805#0 747226805#1 327074920" />
    </vehicle>
    <vehicle id="12" depart="25209.60" type="motorcycle">
        <route edges="749986989 747226800 326849846#0 326849846#1 1056903939 747226805#0 747226805#1 327074920 1267462153" />
    </vehicle>
    <vehicle id="14" depart="25211.20" type="motorcycle">
        <route edges="747226803#0 673254417#1 306641038" />
    </vehicle>
    <vehicle id="15" depart="25212.00" type="motorcycle">
        <route edges="673254417#0 747226803#1 35113306 35113196 747226804 1267462152#0 35112848" />
    </vehicle>
    <vehicle id="16" depart="25212.80" type="motorcycle">
        <route edges="193616433#2 608262688 749986989 747226800 326849845 1162554504 971692799 35113306 1267462154 928038825#0" />
    </vehicle>
    <vehicle id="18" depart="25214.40" type="motorcycle">
        <route edges="747226800 326849846#0 326849846#1 1056903939 747226805#0 747226805#1 326770986" />
    </vehicle>
    <vehicle id="21" depart="25216.80" type="motorcycle">
        <route edges="1162554504 971692799 35113306 35113196 747226804 1267462152#0" />
    </vehicle>
    <vehicle id="22" depart="25217.60" type="motorcycle">
        <route edges="-306641038 1267653586#0 1267653586#1 1056903939" />
    </vehicle>
    <vehicle id="23" depart="25218.40" type="motorcycle">
        <route edges="-35112848 1267462152#1 -1345417678 1345417676 -306641038 -673254417#1 747226803#1 35113306 1267462154 928038825#0 928038825#1 749986989 747226800 326849845 1162554504" />
    </vehicle>
    <vehicle id="24" depart="25219.20" type="car">
        <route edges="35112983 193616433#2 608262688 749986989 747226800 326849845 408845370 673254417#0 673254417#1 1267653586#0" />
    </vehicle>
    <vehicle id="26" depart="25220.80" type="motorcycle">
        <route edges="1267462152#0 1267462152#1 -1345417678 1345417676 -306641038 1267653586#0 1267653586#1 1056903939 747226805#0 747226805#1" />
    </vehicle>
    <vehicle id="27" depart="25221.60" type="motorcycle">
        <route edges="35112983 193616433#2 608262688 749986989 747226800 326849845 408845370 673254417#0 673254417#1 306641038" />
    </vehicle>
    <vehicle id="28" depart="25222.40" type="motorcycle">
        <route edges="-747226804 1267653586#1 1056903939 747226805#0 747226805#1 327074920 1267462152#0 35112848" />
    </vehicle>
    <vehicle id="29" depart="25223.20" type="motorcycle">
        <route edges="-747226804 1267653586#1" />
    </vehicle>
    <vehicle id="30" depart="25224.00" type="car">
        <route edges="928038825#1 749986989 747226800 326849845" />
    </vehicle>
    <vehicle id="32" depart="25225.60" type="car">
        <route edges="747226800 326849845 408845370" />
    </vehicle>
    <vehicle id="33" depart="25226.40" type="motorcycle">
        <route edges="1162554504 971692799 35113306 1267462154 1267462155 -1162554504" />
    </vehicle>
    <vehicle id="34" depart="25227.20" type="motorcycle">
        <route edges="1267653586#1 1056903939 747226805#0 747226805#1 327074920 1267462152#0 1267462152#1 408153725 1125370519" />
    </vehicle>
    <vehicle id="35" depart="25228.00" type="motorcycle">
        <route edges="1056903939 747226805#0 747226805#1 327074920 -747226804 -35113196 1267462154 928038825#0 928038825#1 749986989" />
    </vehicle>
    <vehicle id="36" depart="25228.80" type="motorcycle">
        <route edges="747226803#1 35113306 35113196 747226804 1267462152#0 1267462152#1" />
    </vehicle>
    <vehicle id="37" depart="25229.60" type="motorcycle">
        <route edges="35113196 1267653586#1 1267653586#2" />
    </vehicle>
    <vehicle id="38" depart="25230.40" type="car">
        <route edges="747226805#0 747226805#1 327074920 1267462152#0 1267462152#1 1336695528" />
    </vehicle>
    <vehicle id="39" depart="25231.20" type="motorcycle">
        <route edges="1267462152#0 1267462152#1 -1345417678 1345417676 -306641038 1267653586#0 1267653586#1 1056903939" />
    </vehicle>
    <vehicle id="40" depart="25232.00" type="motorcycle">
        <route edges="326849845 408845370 673254417#0 673254417#1 306641038 1345417677 1345417678 408153725 1125370519" />
    </vehicle>
    <vehicle id="41" depart="25232.80" type="motorcycle">
        <route edges="326849846#0 928038825#1 749986989 747226800 326849845 1162554504 971692799 35113306 35113196 747226804" />
    </vehicle>
    <vehicle id="42" depart="25233.60" type="motorcycle">
        <route edges="1336695529 -1336695528 -1345417678 1345417676 -306641038 1267653586#0 1267653586#1 1056903939 747226805#0 747226805#1 327074920 -747226804" />
    </vehicle>
    <vehicle id="43" depart="25234.40" type="motorcycle">
        <route edges="928038825#1 749986989 747226800 326849845 408845370 673254417#0 673254417#1 306641038 1345417677 1345417678" />
    </vehicle>
    <vehicle id="45" depart="25236.00" type="motorcycle">
        <route edges="-35112848 1267462152#1 -1345417678 1345417676 -306641038 1267653586#0 1267653586#1 1056903939 747226805#0 747226805#1 326770986" />
    </vehicle>
    <vehicle id="47" depart="25237.60" type="motorcycle">
        <route edges="-1345417678 1345417676 -306641038 1267653586#0 1267653586#1" />
    </vehicle>
    <vehicle id="49" depart="25239.20" type="car">
        <route edges="928038825#0 928038825#1 749986989 747226800" />
    </vehicle>
    <vehicle id="50" depart="25240.00" type="motorcycle">
        <route edges="-1162554504 408845370 673254417#0 747226803#1 35113306 35113196 747226804 1267462152#0 35112848" />
    </vehicle>
    <vehicle id="52" depart="25241.60" type="motorcycle">
        <route edges="1267462152#0 1267462152#1 -1345417678 1345417676 -306641038 -673254417#1 747226803#1 35113306 1267462154 928038825#0 928038825#1 749986989 747226800 326849845" />
    </vehicle>
    <vehicle id="53" depart="25242.40" type="motorcycle">
        <route edges="-35112848 1267462152#1 1336695528 1336695527" />
    </vehicle>
    <vehicle id="55" depart="25244.00" type="motorcycle">
        <route edges="747226803#1 35113306 35113196 747226804 1267462152#0 1267462152#1 408153725 1125370519" />
    </vehicle>
    <vehicle id="56" depart="25244.80" type="motorcycle">
        <route edges="193616433#1 193616433#2 608262688 749986989 747226800 326849846#0 326849846#1 1056903939 747226805#0 747226805#1 327074920 1267462152#0 1267462152#1 -1345417678 1345417676 -306641038 -673254417#1 -673254417#0" />
    </vehicle>
    <vehicle id="57" depart="25245.60" type="car">
        <route edges="747226805#0 747226805#1 327074920 1267462152#0 1267462152#1 -1345417678 1345417676 -306641038 -673254417#1 747226803#1" />
    </vehicle>
    <vehicle id="58" depart="25246.40" type="motorcycle">
        <route edges="1267653586#0 -35113196 1267462154 928038825#0 928038825#1 749986989 747226800 326849845" />
    </vehicle>
    <vehicle id="59" depart="25247.20" type="car">
        <route edges="326849846#1 1056903939 747226805#0 -35113249" />
    </vehicle>
    <vehicle id="62" depart="25249.60" type="motorcycle">
        <route edges="-1162554504 408845370 673254417#0 747226803#1 35113306 35113196 747226804 1267462152#0 1267462152#1" />
    </vehicle>
    <vehicle id="63" depart="25250.40" type="motorcycle">
        <route edges="-1267462153 -747226804 1267653586#1 1056903939 747226805#0 747226805#1" />
    </vehicle>
    <vehicle id="64" depart="25251.20" type="motorcycle">
        <route edges="747226803#1 35113306 1267462154 1267462155 -1162554504 408845370 673254417#0 673254417#1" />
    </vehicle>
    <vehicle id="65" depart="25252.00" type="motorcycle">
        <route edges="1267653586#0 747226804 1267462152#0 1267462152#1 -1345417678" />
    </vehicle>
    <vehicle id="66" depart="25252.80" type="car">
        <route edges="747226803#1 35113306 1267462154 928038825#0 928038825#1 749986989" />
    </vehicle>
    <vehicle id="67" depart="25253.60" type="motorcycle">
        <route edges="-306641038 -673254417#1 747226803#1 35113306 1267462154 1267462155 -1162554504 408845370 673254417#0 673254417#1 306641038 1345417677" />
    </vehicle>
    <vehicle id="68" depart="25254.40" type="car">
        <route edges="-1345417678 1345417676 -306641038 1267653586#0 747226804 1267462152#0 1267462152#1 408153725" />
    </vehicle>
    <vehicle id="69" depart="25255.20" type="car">
        <route edges="58871347 1267653586#0 -35113196" />
    </vehicle>
    <vehicle id="70" depart="25256.00" type="motorcycle">
        <route edges="193092895 193616433#0" />
    </vehicle>
    <vehicle id="71" depart="25256.80" type="motorcycle">
        <route edges="1267462152#0 1267462152#1 -1345417678 1345417676 -306641038 -673254417#1 747226803#1" />
    </vehicle>
    <vehicle id="74" depart="25259.20" type="motorcycle">
        <route edges="1056903939 747226805#0 747226805#1 327074920 1267462152#0 1267462152#1" />
    </vehicle>
    <vehicle id="75" depart="25260.00" type="motorcycle">
        <route edges="928038825#1 749986989 747226800 326849845" />
    </vehicle>
    <vehicle id="76" depart="25260.80" type="motorcycle">
        <route edges="1345417677 1345417678" />
    </vehicle>
    <vehicle id="77" depart="25261.60" type="bus">
        <route edges="-35113196 1267462154 928038825#0 326849846#1 1056903939 747226805#0 747226805#1 327074920 -747226804" />
    </vehicle>
    <vehicle id="79" depart="25263.20" type="motorcycle">
        <route edges="1162554504 971692799 35113306 1267462154 928038825#0 326849846#1 1056903939 747226805#0 747226805#1 327074920 -747226804" />
    </vehicle>
    <vehicle id="80" depart="25264.00" type="motorcycle">
        <route edges="-1345417678 1345417676 -306641038 1267653586#0 1267653586#1 1056903939 747226805#0 747226805#1 326770986" />
    </vehicle>
    <vehicle id="81" depart="25264.80" type="motorcycle">
        <route edges="1162554504 971692799 35113306 1267462154 928038825#0 326849846#1 1056903939 747226805#0" />
    </vehicle>
    <vehicle id="82" depart="25265.60" type="motorcycle">
        <route edges="747226803#0 747226803#1 35113306 35113196 747226804 1267462152#0 1267462152#1 -1345417678" />
    </vehicle>
    <vehicle id="83" depart="25266.40" type="motorcycle">
        <route edges="1267006215 747226800 326849846#0" />
    </vehicle>
    <vehicle id="84" depart="25267.20" type="car">
        <route edges="1162554504 971692799 35113306 1267462154 1267462155 -1162554504 408845370 673254417#0 673254417#1 1267653586#0 -35113196" />
    </vehicle>
    <vehicle id="86" depart="25268.80" type="motorcycle">
        <route edges="193092895 193616433#0 193616433#1 193616433#2 608262688 749986989 747226800 326849845 408845370" />
    </vehicle>
    <vehicle id="87" depart="25269.60" type="motorcycle">
        <route edges="673254417#0 747226803#1 35113306 35113196 747226804 1267462152#0 1267462152#1 -1345417678 1345417676 -306641038 -673254417#1 -673254417#0" />
    </vehicle>
    <vehicle id="88" depart="25270.40" type="motorcycle">
        <route edges="-35112848 1267462152#1 1336695528 1336695527" />
    </vehicle>
    <vehicle id="92" depart="25273.60" type="motorcycle">
        <route edges="1336695529 -1336695528 -1345417678 1345417676 -306641038 1267653586#0 747226804 1267462153" />
    </vehicle>
    <vehicle id="93" depart="25274.40" type="motorcycle">
        <route edges="747226803#0 747226803#1 35113306 1267462154 928038825#0 326849846#1 1056903939" />
    </vehicle>
    <vehicle id="94" depart="25275.20" type="motorcycle">
        <route edges="1056903938 747226805#0 747226805#1 327074920 1267462152#0 1267462152#1 1336695528" />
    </vehicle>
    <vehicle id="95" depart="25276.00" type="motorcycle">
        <route edges="1345417676 -306641038 -673254417#1 747226803#1 35113306 1267462154 928038825#0 928038825#1 749986989 747226800 326849845 1162554504" />
    </vehicle>
    <vehicle id="96" depart="25276.80" type="motorcycle">
        <route edges="1267006215 747226800 326849846#0 326849846#1 1056903939 747226805#0 747226805#1" />
    </vehicle>
    <vehicle id="99" depart="25279.20" type="motorcycle">
        <route edges="928038825#1 749986989 747226800 326849845 408845370 673254417#0 673254417#1" />
    </vehicle>
    <vehicle id="100" depart="25280.00" type="motorcycle">
        <route edges="928038825#0 326849846#1 1056903939 747226805#0 747226805#1" />
    </vehicle>
    <vehicle id="102" depart="25281.60" type="motorcycle">
        <route edges="193616433#0 193616433#1 193616433#2 608262688 749986989 747226800 326849846#0 326849846#1 1056903939 747226805#0 747226805#1 327074920 -747226804" />
    </vehicle>
    <vehicle id="103" depart="25282.40" type="car">
        <route edges="1336695529 -1336695528 -1345417678" />
    </vehicle>
    <vehicle id="105" depart="25284.00" type="car">
        <route edges="1267462152#0 1267462152#1 -1345417678 1345417676 -306641038 -673254417#1 747226803#1 35113306 1267462154 1267462155 -1162554504 408845370" />
    </vehicle>
    <vehicle id="107" depart="25285.60" type="motorcycle">
        <route edges="749986989 747226800 326849846#0 928038825#1" />
    </vehicle>
    <vehicle id="109" depart="25287.20" type="car">
        <route edges="-747226804 1267653586#1 1056903939 747226805#0 747226805#1 327074920 1267462152#0" />
    </vehicle>
    <vehicle id="113" depart="25290.40" type="motorcycle">
        <route edges="193616433#1 193616433#2 608262688 749986989 747226800" />
    </vehicle>
    <vehicle id="114" depart="25291.20" type="car">
        <route edges="-747226804 -35113196 1267462154 928038825#0 928038825#1 749986989" />
    </vehicle>
    <vehicle id="115" depart="25292.00" type="car">
        <route edges="-306641038 -673254417#1 -673254417#0" />
    </vehicle>
    <vehicle id="116" depart="25292.80" type="car">
        <route edges="326849846#0 326849846#1" />
    </vehicle>
    <vehicle id="117" depart="25293.60" type="motorcycle">
        <route edges="1267006215 747226800 326849845 408845370 673254417#0 673254417#1 1267653586#0 -35113196" />
    </vehicle>
    <vehicle id="118" depart="25294.40" type="motorcycle">
        <route edges="747226804 1267462152#0 1267462152#1 -1345417678 1345417676 -306641038 1267653586#0 1267653586#1 1056903939" />
    </vehicle>
    <vehicle id="119" depart="25295.20" type="car">
        <route edges="326849846#0 326849846#1 1056903939 747226805#0 747226805#1 326770986" />
    </vehicle>
    <vehicle id="121" depart="25296.80" type="motorcycle">
        <route edges="193616433#2 608262688 749986989 747226800 326849846#0 326849846#1 1056903939 747226805#0 747226805#1" />
    </vehicle>
    <vehicle id="122" depart="25297.60" type="motorcycle">
        <route edges="1056903939 747226805#0 747226805#1 327074920 1267462152#0 35112848" />
    </vehicle>
    <vehicle id="123" depart="25298.40" type="motorcycle">
        <route edges="1267006215 747226800 326849846#0 326849846#1 1267653586#2" />
    </vehicle>
    <vehicle id="124" depart="25299.20" type="motorcycle">
        <route edges="35113196 747226804 1267462152#0" />
    </vehicle>
    <vehicle id="125" depart="25300.00" type="motorcycle">
        <route edges="1267653586#1 1056903939 747226805#0 747226805#1 327074920 1267462152#0 1267462152#1 408153725" />
    </vehicle>
    <vehicle id="126" depart="25300.80" type="motorcycle">
        <route edges="-1345417678 1345417676 -306641038 1267653586#0 747226804 1267462152#0 1267462152#1 1336695528" />
    </vehicle>
    <vehicle id="127" depart="25301.60" type="motorcycle">
        <route edges="928038825#1" />
    </vehicle>
    <vehicle id="128" depart="25302.40" type="motorcycle">
        <route edges="-1345417678 1345417676 -306641038 1267653586#0 1267653586#1 1056903939 747226805#0 747226805#1 327074920 -747226804" />
    </vehicle>
    <vehicle id="129" depart="25303.20" type="motorcycle">
        <route edges="1267462152#0 1267462152#1 -1345417678 1345417676 -306641038 1267653586#0 1267653586#1 1056903939 747226805#0 747226805#1" />
    </vehicle>
    <vehicle id="130" depart="25304.00" type="motorcycle">
        <route edges="747226803#1" />
    </vehicle>
    <vehicle id="132" depart="25305.60" type="motorcycle">
        <route edges="747226800 326849846#0 326849846#1 1056903939 747226805#0 747226805#1 327074920" />
    </vehicle>
    <vehicle id="133" depart="25306.40" type="motorcycle">
        <route edges="326849846#1 1267653586#2 608262688 749986989 747226800 326849846#0 928038825#1" />
    </vehicle>
    <vehicle id="134" depart="25307.20" type="motorcycle">
        <route edges="35113196 1267653586#1 1056903939 -1056903938" />
    </vehicle>
    <vehicle id="135" depart="25308.00" type="car">
        <route edges="673254417#1 1267653586#0 747226804 1267462152#0" />
    </vehicle>
    <vehicle id="136" depart="25308.80" type="car">
        <route edges="35113196 1267653586#1 1056903939 747226805#0 747226805#1" />
    </vehicle>
    <vehicle id="137" depart="25309.60" type="motorcycle">
        <route edges="-35113196" />
    </vehicle>
    <vehicle id="139" depart="25311.20" type="motorcycle">
        <route edges="1267462152#1 -1345417678 1345417676 -306641038 -673254417#1 747226803#1 35113306 1267462154 1267462155 -1162554504 408845370 673254417#0 673254417#1 306641038" />
    </vehicle>
    <vehicle id="141" depart="25312.80" type="motorcycle">
        <route edges="327074920 1267462152#0 1267462152#1 408153725 1125370519" />
    </vehicle>
    <vehicle id="142" depart="25313.60" type="motorcycle">
        <route edges="193616433#0 193616433#1 193616433#2 608262688 749986989 747226800 326849846#0 326849846#1 1056903939 747226805#0" />
    </vehicle>
    <vehicle id="143" depart="25314.40" type="motorcycle">
        <route edges="747226800 326849846#0 326849846#1 1056903939 747226805#0 747226805#1 327074920 1267462152#0 1267462152#1 -1345417678 1345417676 -306641038" />
    </vehicle>
    <vehicle id="145" depart="25316.00" type="motorcycle">
        <route edges="-1162554504 408845370" />
    </vehicle>
    <vehicle id="146" depart="25316.80" type="motorcycle">
        <route edges="35112983 193616433#2 608262688 749986989 747226800 326849846#0 326849846#1 1056903939 747226805#0 747226805#1 327074920 1267462152#0 1267462152#1 408153725 1125370519" />
    </vehicle>
    <vehicle id="149" depart="25319.20" type="motorcycle">
        <route edges="-1345417678 1345417676 -306641038 -673254417#1 747226803#1" />
    </vehicle>
    <vehicle id="152" depart="25321.60" type="motorcycle">
        <route edges="-673254417#1 747226803#1 35113306 1267462154 1267462155 -1162554504 408845370 673254417#0 673254417#1 1267653586#0 -35113196" />
    </vehicle>
    <vehicle id="153" depart="25322.40" type="motorcycle">
        <route edges="1267653586#1 1056903939 747226805#0 747226805#1 327074920 1267462152#0 1267462152#1 -1345417678 1345417676 -306641038 1267653586#0 747226804" />
    </vehicle>
    <vehicle id="154" depart="25323.20" type="car">
        <route edges="673254417#0 747226803#1 35113306 1267462154 928038825#0 928038825#1 749986989 747226800" />
    </vehicle>
    <vehicle id="155" depart="25324.00" type="motorcycle">
        <route edges="747226804 1267462152#0 1267462152#1 -1345417678 1345417676 -306641038 -673254417#1" />
    </vehicle>
    <vehicle id="157" depart="25325.60" type="motorcycle">
        <route edges="608262688 749986989 747226800 326849845 408845370 673254417#0 747226803#1" />
    </vehicle>
    <vehicle id="158" depart="25326.40" type="motorcycle">
        <route edges="1345417676 -306641038 1267653586#0 1267653586#1 1056903939 747226805#0 747226805#1 326770986" />
    </vehicle>
    <vehicle id="159" depart="25327.20" type="motorcycle">
        <route edges="-747226804 1267653586#1 1056903939 747226805#0 747226805#1" />
    </vehicle>
    <vehicle id="160" depart="25328.00" type="motorcycle">
        <route edges="747226803#0 747226803#1 35113306 1267462154 928038825#0" />
    </vehicle>
    <vehicle id="161" depart="25328.80" type="motorcycle">
        <route edges="673254417#1 1267653586#0 -35113196 1267462154 1267462155 -1162554504 408845370 673254417#0 747226803#1" />
    </vehicle>
    <vehicle id="162" depart="25329.60" type="motorcycle">
        <route edges="-1267462153 -747226804 -35113196 1267462154 1267462155 971692799 35113306 35113196" />
    </vehicle>
    <vehicle id="163" depart="25330.40" type="motorcycle">
        <route edges="1267653586#2 608262688 749986989 747226800 326849846#0 326849846#1 1056903939 747226805#0 747226805#1" />
    </vehicle>
    <vehicle id="164" depart="25331.20" type="motorcycle">
        <route edges="673254417#0 747226803#1 35113306 1267462154 928038825#0 928038825#1 749986989 747226800" />
    </vehicle>
    <vehicle id="165" depart="25332.00" type="motorcycle">
        <route edges="673254417#1 306641038 1345417677 1345417678 408153725 1125370519" />
    </vehicle>
    <vehicle id="167" depart="25333.60" type="motorcycle">
        <route edges="747226803#1 35113306 1267462154 928038825#0 928038825#1 749986989 747226800" />
    </vehicle>
    <vehicle id="168" depart="25334.40" type="motorcycle">
        <route edges="1162554504 971692799 35113306 1267462154 1267462155 -1162554504 408845370 673254417#0" />
    </vehicle>
    <vehicle id="170" depart="25336.00" type="car">
        <route edges="673254417#0 747226803#1 35113306 1267462154 928038825#0 326849846#1 1056903939 747226805#0 747226805#1 327074920 -747226804" />
    </vehicle>
    <vehicle id="171" depart="25336.80" type="motorcycle">
        <route edges="-1267462153 1267462152#0 1267462152#1 -1345417678 1345417676 -306641038 -673254417#1" />
    </vehicle>
    <vehicle id="172" depart="25337.60" type="motorcycle">
        <route edges="1267653586#2 608262688 749986989 747226800" />
    </vehicle>
    <vehicle id="173" depart="25338.40" type="motorcycle">
        <route edges="928038825#0 928038825#1 749986989 747226800 326849845 1162554504" />
    </vehicle>
    <vehicle id="174" depart="25339.20" type="car">
        <route edges="35112983 193616433#2 608262688 749986989 747226800 326849846#0 326849846#1 1267653586#2" />
    </vehicle>
    <vehicle id="177" depart="25341.60" type="motorcycle">
        <route edges="928038825#0 326849846#1 1056903939 747226805#0 747226805#1 327074920 1267462152#0 1267462152#1 -1345417678 1345417676 -306641038 -673254417#1 -673254417#0" />
    </vehicle>
    <vehicle id="178" depart="25342.40" type="car">
        <route edges="928038825#0 326849846#1 1056903939 747226805#0 747226805#1 327074920 1267462152#0 1267462152#1 408153725 1125370519" />
    </vehicle>
    <vehicle id="179" depart="25343.20" type="motorcycle">
        <route edges="-35112848 1267462152#1 1336695528 1336695527" />
    </vehicle>
    <vehicle id="181" depart="25344.80" type="car">
        <route edges="326849846#1 1267653586#2 608262688 749986989 747226800 326849845 408845370 673254417#0 673254417#1 306641038 1345417677 1345417678" />
    </vehicle>
    <vehicle id="183" depart="25346.40" type="car">
        <route edges="1267462152#0 1267462152#1 -1345417678 1345417676 -306641038 1267653586#0 1267653586#1 1056903939 747226805#0 747226805#1 327074920" />
    </vehicle>
    <vehicle id="184" depart="25347.20" type="motorcycle">
        <route edges="-1162554504 408845370 673254417#0 747226803#1 35113306 1267462154 928038825#0 326849846#1 1056903939 747226805#0 747226805#1" />
    </vehicle>
    <vehicle id="185" depart="25348.00" type="motorcycle">
        <route edges="193616433#2 608262688 749986989 747226800 326849846#0 326849846#1 1056903939 747226805#0 747226805#1 327074920 1267462152#0 35112848" />
    </vehicle>
    <vehicle id="186" depart="25348.80" type="motorcycle">
        <route edges="408845370 673254417#0 747226803#1 35113306 1267462154 928038825#0 928038825#1 749986989 747226800 326849846#0" />
    </vehicle>
    <vehicle id="187" depart="25349.60" type="car">
        <route edges="1275903827 327074920 1267462152#0 1267462152#1 -1345417678" />
    </vehicle>
    <vehicle id="188" depart="25350.40" type="motorcycle">
        <route edges="35113196 747226804 1267462153" />
    </vehicle>
    <vehicle id="189" depart="25351.20" type="motorcycle">
        <route edges="1267653586#1 1267653586#2 608262688 749986989 747226800" />
    </vehicle>
    <vehicle id="192" depart="25353.60" type="motorcycle">
        <route edges="1336695529 -1336695528 -1345417678 1345417676 -306641038 1267653586#0 747226804 1267462152#0" />
    </vehicle>
    <vehicle id="194" depart="25355.20" type="car">
        <route edges="747226805#1 327074920 -747226804 -35113196 1267462154 928038825#0 326849846#1" />
    </vehicle>
    <vehicle id="195" depart="25356.00" type="motorcycle">
        <route edges="747226804 1267462152#0 1267462152#1 -1345417678 1345417676 -306641038 1267653586#0 1267653586#1 1056903939 747226805#0 747226805#1 326770986" />
    </vehicle>
    <vehicle id="197" depart="25357.60" type="motorcycle">
        <route edges="-1162554504 408845370 673254417#0 747226803#1 35113306 1267462154 928038825#0 928038825#1 749986989 747226800 326849845 1162554504" />
    </vehicle>
    <vehicle id="199" depart="25359.20" type="motorcycle">
        <route edges="35113196 747226804 1267462152#0 1267462152#1 -1345417678 1345417676" />
    </vehicle>
    <vehicle id="201" depart="25360.80" type="car">
        <route edges="193092895 1275903827 327074920 1267462152#0 1267462152#1 -1345417678 1345417676 -306641038 1267653586#0 747226804" />
    </vehicle>
    <vehicle id="203" depart="25362.40" type="car">
        <route edges="-306641038 -673254417#1 747226803#1 35113306 1267462154 1267462155 -1162554504 408845370 673254417#0 673254417#1 306641038 1345417677 1345417678" />
    </vehicle>
    <vehicle id="204" depart="25363.20" type="motorcycle">
        <route edges="327074920 1267462153" />
    </vehicle>
    <vehicle id="205" depart="25364.00" type="motorcycle">
        <route edges="673254417#1 306641038 1345417677 1345417678 408153725" />
    </vehicle>
    <vehicle id="206" depart="25364.80" type="motorcycle">
        <route edges="35113196 1267653586#1 1056903939 747226805#0 747226805#1 327074920 -747226804" />
    </vehicle>
    <vehicle id="207" depart="25365.60" type="motorcycle">
        <route edges="1056903939 747226805#0 747226805#1 327074920 -747226804 -35113196 1267462154 1267462155 -1162554504" />
    </vehicle>
    <vehicle id="208" depart="25366.40" type="motorcycle">
        <route edges="1267006215 747226800 326849846#0 326849846#1 1056903939 747226805#0 747226805#1 327074920 1267462152#0 1267462152#1 -1345417678 1345417676" />
    </vehicle>
    <vehicle id="209" depart="25367.20" type="motorcycle">
        <route edges="747226803#0 747226803#1 35113306 35113196 747226804 1267462152#0 1267462152#1 -1345417678" />
    </vehicle>
    <vehicle id="210" depart="25368.00" type="motorcycle">
        <route edges="1345417676 -306641038 1267653586#0 1267653586#1 1056903939 747226805#0 747226805#1 326770986" />
    </vehicle>
    <vehicle id="211" depart="25368.80" type="motorcycle">
        <route edges="1056903939 747226805#0 747226805#1 327074920" />
    </vehicle>
    <vehicle id="212" depart="25369.60" type="motorcycle">
        <route edges="193616433#0 193616433#1 193616433#2 608262688 749986989 747226800 326849846#0 326849846#1 1056903939" />
    </vehicle>
    <vehicle id="213" depart="25370.40" type="motorcycle">