<?xml version='1.0' encoding='utf-8'?>
<configuration><input><net-file value="region_1.net.xml" /><route-files value="generated_rou.rou.xml" /><additional-files value="calibrator_fixed.xml,detector_fixed.xml" /></input><time><begin value="0" /><end value="1000" /></time></configuration>