<?xml version='1.0' encoding='utf-8'?>
<routes><vType id="motorcycle" vClass="motorcycle" accel="3.0" decel="5.0" sigma="0.7" length="2.0" width="0.8" maxSpeed="16.67" color="yellow" minGap="0.5" lcAssertive="1.6" lcSpeedGain="1.6" lcStrategic="1.3" lcCooperative="0.7" /><vType id="car" vClass="passenger" accel="2.5" decel="4.5" sigma="0.3" length="4.5" width="1.8" maxSpeed="13.89" color="blue" minGap="2.0" lcAssertive="1.2" lcSpeedGain="1.3" lcStrategic="1.6" lcCooperative="0.8" /><vType id="bus" vClass="bus" accel="1.5" decel="3.5" sigma="0.2" length="12.0" width="2.5" maxSpeed="11.11" color="green" minGap="3.0" lcAssertive="1.0" lcSpeedGain="1.0" lcStrategic="1.0" lcCooperative="1.0" /><vType id="truck" vClass="truck" accel="1.8" decel="4.0" sigma="0.2" length="7.5" width="2.2" maxSpeed="11.11" color="red" minGap="3.0" lcAssertive="1.0" lcSpeedGain="1.0" lcStrategic="1.0" lcCooperative="1.0" /><route id="route_0" edges="673254417#0 747226803#1 35113306 1267462154 1267462155 -1162554504" /><flow id="flow_motorcycle_0" type="motorcycle" begin="25200" end="28800" vehsPerHour="630" route="route_0" /><flow id="flow_car_1" type="car" begin="25200" end="28800" vehsPerHour="126" route="route_0" /><flow id="flow_bus_2" type="bus" begin="25200" end="28800" vehsPerHour="12" route="route_0" /><flow id="flow_truck_3" type="truck" begin="25200" end="28800" vehsPerHour="6" route="route_0" /><route id="route_4" edges="673254417#0 673254417#1 1267653586#0 1267653586#1 1267653586#2 608262688 749986989 747226800" /><flow id="flow_motorcycle_4" type="motorcycle" begin="25200" end="28800" vehsPerHour="683" route="route_4" /><flow id="flow_car_5" type="car" begin="25200" end="28800" vehsPerHour="136" route="route_4" /><flow id="flow_bus_6" type="bus" begin="25200" end="28800" vehsPerHour="13" route="route_4" /><flow id="flow_truck_7" type="truck" begin="25200" end="28800" vehsPerHour="6" route="route_4" /><route id="route_8" edges="673254417#0 673254417#1 1267653586#0 1267653586#1 1267653586#2 608262688 749986989" /><flow id="flow_motorcycle_8" type="motorcycle" begin="25200" end="28800" vehsPerHour="624" route="route_8" /><flow id="flow_car_9" type="car" begin="25200" end="28800" vehsPerHour="124" route="route_8" /><flow id="flow_bus_10" type="bus" begin="25200" end="28800" vehsPerHour="12" route="route_8" /><flow id="flow_truck_11" type="truck" begin="25200" end="28800" vehsPerHour="6" route="route_8" /><route id="route_12" edges="673254417#0 673254417#1 1267653586#0 1267653586#1 1267653586#2 608262688" /><flow id="flow_motorcycle_12" type="motorcycle" begin="25200" end="28800" vehsPerHour="691" route="route_12" /><flow id="flow_car_13" type="car" begin="25200" end="28800" vehsPerHour="138" route="route_12" /><flow id="flow_bus_14" type="bus" begin="25200" end="28800" vehsPerHour="13" route="route_12" /><flow id="flow_truck_15" type="truck" begin="25200" end="28800" vehsPerHour="6" route="route_12" /><route id="route_16" edges="673254417#0 747226803#1 35113306 1267462154 928038825#0" /><flow id="flow_motorcycle_16" type="motorcycle" begin="25200" end="28800" vehsPerHour="700" route="route_16" /><flow id="flow_car_17" type="car" begin="25200" end="28800" vehsPerHour="140" route="route_16" /><flow id="flow_bus_18" type="bus" begin="25200" end="28800" vehsPerHour="14" route="route_16" /><flow id="flow_truck_19" type="truck" begin="25200" end="28800" vehsPerHour="7" route="route_16" /><route id="route_20" edges="673254417#0 747226803#1 35113306" /><flow id="flow_motorcycle_20" type="motorcycle" begin="25200" end="28800" vehsPerHour="623" route="route_20" /><flow id="flow_car_21" type="car" begin="25200" end="28800" vehsPerHour="124" route="route_20" /><flow id="flow_bus_22" type="bus" begin="25200" end="28800" vehsPerHour="12" route="route_20" /><flow id="flow_truck_23" type="truck" begin="25200" end="28800" vehsPerHour="6" route="route_20" /><route id="route_24" edges="673254417#0" /><flow id="flow_motorcycle_24" type="motorcycle" begin="25200" end="28800" vehsPerHour="581" route="route_24" /><flow id="flow_car_25" type="car" begin="25200" end="28800" vehsPerHour="116" route="route_24" /><flow id="flow_bus_26" type="bus" begin="25200" end="28800" vehsPerHour="11" route="route_24" /><flow id="flow_truck_27" type="truck" begin="25200" end="28800" vehsPerHour="5" route="route_24" /><route id="route_28" edges="673254417#0 673254417#1" /><flow id="flow_motorcycle_28" type="motorcycle" begin="25200" end="28800" vehsPerHour="585" route="route_28" /><flow id="flow_car_29" type="car" begin="25200" end="28800" vehsPerHour="117" route="route_28" /><flow id="flow_bus_30" type="bus" begin="25200" end="28800" vehsPerHour="11" route="route_28" /><flow id="flow_truck_31" type="truck" begin="25200" end="28800" vehsPerHour="5" route="route_28" /><route id="route_32" edges="673254417#0 673254417#1 1267653586#0" /><flow id="flow_motorcycle_32" type="motorcycle" begin="25200" end="28800" vehsPerHour="629" route="route_32" /><flow id="flow_car_33" type="car" begin="25200" end="28800" vehsPerHour="125" route="route_32" /><flow id="flow_bus_34" type="bus" begin="25200" end="28800" vehsPerHour="12" route="route_32" /><flow id="flow_truck_35" type="truck" begin="25200" end="28800" vehsPerHour="6" route="route_32" /><route id="route_36" edges="673254417#0 673254417#1 1267653586#0 1267653586#1" /><flow id="flow_motorcycle_36" type="motorcycle" begin="25200" end="28800" vehsPerHour="637" route="route_36" /><flow id="flow_car_37" type="car" begin="25200" end="28800" vehsPerHour="127" route="route_36" /><flow id="flow_bus_38" type="bus" begin="25200" end="28800" vehsPerHour="12" route="route_36" /><flow id="flow_truck_39" type="truck" begin="25200" end="28800" vehsPerHour="6" route="route_36" /><route id="route_40" edges="673254417#0 673254417#1 1267653586#0 1267653586#1 1267653586#2" /><flow id="flow_motorcycle_40" type="motorcycle" begin="25200" end="28800" vehsPerHour="636" route="route_40" /><flow id="flow_car_41" type="car" begin="25200" end="28800" vehsPerHour="127" route="route_40" /><flow id="flow_bus_42" type="bus" begin="25200" end="28800" vehsPerHour="12" route="route_40" /><flow id="flow_truck_43" type="truck" begin="25200" end="28800" vehsPerHour="6" route="route_40" /><route id="route_44" edges="673254417#0 673254417#1 1267653586#0 1267653586#1 1056903939 747226805#0 747226805#1" /><flow id="flow_motorcycle_44" type="motorcycle" begin="25200" end="28800" vehsPerHour="682" route="route_44" /><flow id="flow_car_45" type="car" begin="25200" end="28800" vehsPerHour="136" route="route_44" /><flow id="flow_bus_46" type="bus" begin="25200" end="28800" vehsPerHour="13" route="route_44" /><flow id="flow_truck_47" type="truck" begin="25200" end="28800" vehsPerHour="6" route="route_44" /><route id="route_48" edges="673254417#0 673254417#1 1267653586#0 747226804" /><flow id="flow_motorcycle_48" type="motorcycle" begin="25200" end="28800" vehsPerHour="622" route="route_48" /><flow id="flow_car_49" type="car" begin="25200" end="28800" vehsPerHour="124" route="route_48" /><flow id="flow_bus_50" type="bus" begin="25200" end="28800" vehsPerHour="12" route="route_48" /><flow id="flow_truck_51" type="truck" begin="25200" end="28800" vehsPerHour="6" route="route_48" /><route id="route_52" edges="673254417#0 673254417#1 306641038 1345417677 1345417678" /><flow id="flow_motorcycle_52" type="motorcycle" begin="25200" end="28800" vehsPerHour="636" route="route_52" /><flow id="flow_car_53" type="car" begin="25200" end="28800" vehsPerHour="127" route="route_52" /><flow id="flow_bus_54" type="bus" begin="25200" end="28800" vehsPerHour="12" route="route_52" /><flow id="flow_truck_55" type="truck" begin="25200" end="28800" vehsPerHour="6" route="route_52" /><route id="route_56" edges="408845370" /><flow id="flow_motorcycle_56" type="motorcycle" begin="25200" end="28800" vehsPerHour="633" route="route_56" /><flow id="flow_car_57" type="car" begin="25200" end="28800" vehsPerHour="126" route="route_56" /><flow id="flow_bus_58" type="bus" begin="25200" end="28800" vehsPerHour="12" route="route_56" /><flow id="flow_truck_59" type="truck" begin="25200" end="28800" vehsPerHour="6" route="route_56" /><route id="route_60" edges="1162554504 971692799 35113306 1267462154 928038825#0 928038825#1 749986989 747226800" /><flow id="flow_motorcycle_60" type="motorcycle" begin="25200" end="28800" vehsPerHour="810" route="route_60" /><flow id="flow_car_61" type="car" begin="25200" end="28800" vehsPerHour="162" route="route_60" /><flow id="flow_bus_62" type="bus" begin="25200" end="28800" vehsPerHour="16" route="route_60" /><flow id="flow_truck_63" type="truck" begin="25200" end="28800" vehsPerHour="8" route="route_60" /><route id="route_64" edges="1162554504 971692799 35113306 1267462154 928038825#0 928038825#1 749986989" /><flow id="flow_motorcycle_64" type="motorcycle" begin="25200" end="28800" vehsPerHour="660" route="route_64" /><flow id="flow_car_65" type="car" begin="25200" end="28800" vehsPerHour="132" route="route_64" /><flow id="flow_bus_66" type="bus" begin="25200" end="28800" vehsPerHour="13" route="route_64" /><flow id="flow_truck_67" type="truck" begin="25200" end="28800" vehsPerHour="6" route="route_64" /><route id="route_68" edges="1162554504 971692799 35113306 1267462154 928038825#0 928038825#1" /><flow id="flow_motorcycle_68" type="motorcycle" begin="25200" end="28800" vehsPerHour="767" route="route_68" /><flow id="flow_car_69" type="car" begin="25200" end="28800" vehsPerHour="153" route="route_68" /><flow id="flow_bus_70" type="bus" begin="25200" end="28800" vehsPerHour="15" route="route_68" /><flow id="flow_truck_71" type="truck" begin="25200" end="28800" vehsPerHour="7" route="route_68" /><route id="route_72" edges="1162554504 971692799 35113306 1267462154 928038825#0" /><flow id="flow_motorcycle_72" type="motorcycle" begin="25200" end="28800" vehsPerHour="819" route="route_72" /><flow id="flow_car_73" type="car" begin="25200" end="28800" vehsPerHour="164" route="route_72" /><flow id="flow_bus_74" type="bus" begin="25200" end="28800" vehsPerHour="16" route="route_72" /><flow id="flow_truck_75" type="truck" begin="25200" end="28800" vehsPerHour="8" route="route_72" /><route id="route_76" edges="1162554504 971692799 35113306" /><flow id="flow_motorcycle_76" type="motorcycle" begin="25200" end="28800" vehsPerHour="776" route="route_76" /><flow id="flow_car_77" type="car" begin="25200" end="28800" vehsPerHour="155" route="route_76" /><flow id="flow_bus_78" type="bus" begin="25200" end="28800" vehsPerHour="15" route="route_76" /><flow id="flow_truck_79" type="truck" begin="25200" end="28800" vehsPerHour="7" route="route_76" /><route id="route_80" edges="408845370 673254417#0" /><flow id="flow_motorcycle_80" type="motorcycle" begin="25200" end="28800" vehsPerHour="573" route="route_80" /><flow id="flow_car_81" type="car" begin="25200" end="28800" vehsPerHour="114" route="route_80" /><flow id="flow_bus_82" type="bus" begin="25200" end="28800" vehsPerHour="11" route="route_80" /><flow id="flow_truck_83" type="truck" begin="25200" end="28800" vehsPerHour="5" route="route_80" /><route id="route_84" edges="408845370 673254417#0 673254417#1" /><flow id="flow_motorcycle_84" type="motorcycle" begin="25200" end="28800" vehsPerHour="578" route="route_84" /><flow id="flow_car_85" type="car" begin="25200" end="28800" vehsPerHour="115" route="route_84" /><flow id="flow_bus_86" type="bus" begin="25200" end="28800" vehsPerHour="11" route="route_84" /><flow id="flow_truck_87" type="truck" begin="25200" end="28800" vehsPerHour="5" route="route_84" /><route id="route_88" edges="1162554504 971692799 35113306 35113196" /><flow id="flow_motorcycle_88" type="motorcycle" begin="25200" end="28800" vehsPerHour="728" route="route_88" /><flow id="flow_car_89" type="car" begin="25200" end="28800" vehsPerHour="145" route="route_88" /><flow id="flow_bus_90" type="bus" begin="25200" end="28800" vehsPerHour="14" route="route_88" /><flow id="flow_truck_91" type="truck" begin="25200" end="28800" vehsPerHour="7" route="route_88" /><route id="route_92" edges="1162554504 971692799 35113306 35113196 1267653586#1" /><flow id="flow_motorcycle_92" type="motorcycle" begin="25200" end="28800" vehsPerHour="703" route="route_92" /><flow id="flow_car_93" type="car" begin="25200" end="28800" vehsPerHour="140" route="route_92" /><flow id="flow_bus_94" type="bus" begin="25200" end="28800" vehsPerHour="14" route="route_92" /><flow id="flow_truck_95" type="truck" begin="25200" end="28800" vehsPerHour="7" route="route_92" /><route id="route_96" edges="1162554504 971692799 35113306 35113196 1267653586#1 1267653586#2" /><flow id="flow_motorcycle_96" type="motorcycle" begin="25200" end="28800" vehsPerHour="687" route="route_96" /><flow id="flow_car_97" type="car" begin="25200" end="28800" vehsPerHour="137" route="route_96" /><flow id="flow_bus_98" type="bus" begin="25200" end="28800" vehsPerHour="13" route="route_96" /><flow id="flow_truck_99" type="truck" begin="25200" end="28800" vehsPerHour="6" route="route_96" /><route id="route_100" edges="1162554504 971692799 35113306 35113196 1267653586#1 1056903939 747226805#0 747226805#1" /><flow id="flow_motorcycle_100" type="motorcycle" begin="25200" end="28800" vehsPerHour="745" route="route_100" /><flow id="flow_car_101" type="car" begin="25200" end="28800" vehsPerHour="149" route="route_100" /><flow id="flow_bus_102" type="bus" begin="25200" end="28800" vehsPerHour="14" route="route_100" /><flow id="flow_truck_103" type="truck" begin="25200" end="28800" vehsPerHour="7" route="route_100" /><route id="route_104" edges="1162554504 971692799 35113306 35113196 747226804" /><flow id="flow_motorcycle_104" type="motorcycle" begin="25200" end="28800" vehsPerHour="663" route="route_104" /><flow id="flow_car_105" type="car" begin="25200" end="28800" vehsPerHour="132" route="route_104" /><flow id="flow_bus_106" type="bus" begin="25200" end="28800" vehsPerHour="13" route="route_104" /><flow id="flow_truck_107" type="truck" begin="25200" end="28800" vehsPerHour="6" route="route_104" /><route id="route_108" edges="408845370 673254417#0 673254417#1 306641038 1345417677 1345417678" /><flow id="flow_motorcycle_108" type="motorcycle" begin="25200" end="28800" vehsPerHour="652" route="route_108" /><flow id="flow_car_109" type="car" begin="25200" end="28800" vehsPerHour="130" route="route_108" /><flow id="flow_bus_110" type="bus" begin="25200" end="28800" vehsPerHour="13" route="route_108" /><flow id="flow_truck_111" type="truck" begin="25200" end="28800" vehsPerHour="6" route="route_108" /><route id="route_112" edges="326849845 408845370" /><flow id="flow_motorcycle_112" type="motorcycle" begin="25200" end="28800" vehsPerHour="648" route="route_112" /><flow id="flow_car_113" type="car" begin="25200" end="28800" vehsPerHour="129" route="route_112" /><flow id="flow_bus_114" type="bus" begin="25200" end="28800" vehsPerHour="12" route="route_112" /><flow id="flow_truck_115" type="truck" begin="25200" end="28800" vehsPerHour="6" route="route_112" /><route id="route_116" edges="326849845" /><flow id="flow_motorcycle_116" type="motorcycle" begin="25200" end="28800" vehsPerHour="692" route="route_116" /><flow id="flow_car_117" type="car" begin="25200" end="28800" vehsPerHour="138" route="route_116" /><flow id="flow_bus_118" type="bus" begin="25200" end="28800" vehsPerHour="13" route="route_116" /><flow id="flow_truck_119" type="truck" begin="25200" end="28800" vehsPerHour="6" route="route_116" /><route id="route_120" edges="326849846#0 928038825#1 749986989" /><flow id="flow_motorcycle_120" type="motorcycle" begin="25200" end="28800" vehsPerHour="536" route="route_120" /><flow id="flow_car_121" type="car" begin="25200" end="28800" vehsPerHour="107" route="route_120" /><flow id="flow_bus_122" type="bus" begin="25200" end="28800" vehsPerHour="10" route="route_120" /><flow id="flow_truck_123" type="truck" begin="25200" end="28800" vehsPerHour="5" route="route_120" /><route id="route_124" edges="326849846#0 928038825#1" /><flow id="flow_motorcycle_124" type="motorcycle" begin="25200" end="28800" vehsPerHour="617" route="route_124" /><flow id="flow_car_125" type="car" begin="25200" end="28800" vehsPerHour="123" route="route_124" /><flow id="flow_bus_126" type="bus" begin="25200" end="28800" vehsPerHour="12" route="route_124" /><flow id="flow_truck_127" type="truck" begin="25200" end="28800" vehsPerHour="6" route="route_124" /><route id="route_128" edges="326849846#0" /><flow id="flow_motorcycle_128" type="motorcycle" begin="25200" end="28800" vehsPerHour="655" route="route_128" /><flow id="flow_car_129" type="car" begin="25200" end="28800" vehsPerHour="131" route="route_128" /><flow id="flow_bus_130" type="bus" begin="25200" end="28800" vehsPerHour="13" route="route_128" /><flow id="flow_truck_131" type="truck" begin="25200" end="28800" vehsPerHour="6" route="route_128" /><route id="route_132" edges="326849845 1162554504 971692799 35113306" /><flow id="flow_motorcycle_132" type="motorcycle" begin="25200" end="28800" vehsPerHour="698" route="route_132" /><flow id="flow_car_133" type="car" begin="25200" end="28800" vehsPerHour="139" route="route_132" /><flow id="flow_bus_134" type="bus" begin="25200" end="28800" vehsPerHour="13" route="route_132" /><flow id="flow_truck_135" type="truck" begin="25200" end="28800" vehsPerHour="6" route="route_132" /><route id="route_136" edges="326849845 408845370 673254417#0" /><flow id="flow_motorcycle_136" type="motorcycle" begin="25200" end="28800" vehsPerHour="601" route="route_136" /><flow id="flow_car_137" type="car" begin="25200" end="28800" vehsPerHour="120" route="route_136" /><flow id="flow_bus_138" type="bus" begin="25200" end="28800" vehsPerHour="12" route="route_136" /><flow id="flow_truck_139" type="truck" begin="25200" end="28800" vehsPerHour="6" route="route_136" /><route id="route_140" edges="326849845 408845370 673254417#0 673254417#1" /><flow id="flow_motorcycle_140" type="motorcycle" begin="25200" end="28800" vehsPerHour="599" route="route_140" /><flow id="flow_car_141" type="car" begin="25200" end="28800" vehsPerHour="119" route="route_140" /><flow id="flow_bus_142" type="bus" begin="25200" end="28800" vehsPerHour="11" route="route_140" /><flow id="flow_truck_143" type="truck" begin="25200" end="28800" vehsPerHour="5" route="route_140" /><route id="route_144" edges="326849845 1162554504 971692799 35113306 35113196" /><flow id="flow_motorcycle_144" type="motorcycle" begin="25200" end="28800" vehsPerHour="689" route="route_144" /><flow id="flow_car_145" type="car" begin="25200" end="28800" vehsPerHour="137" route="route_144" /><flow id="flow_bus_146" type="bus" begin="25200" end="28800" vehsPerHour="13" route="route_144" /><flow id="flow_truck_147" type="truck" begin="25200" end="28800" vehsPerHour="6" route="route_144" /><route id="route_148" edges="326849846#0 326849846#1" /><flow id="flow_motorcycle_148" type="motorcycle" begin="25200" end="28800" vehsPerHour="715" route="route_148" /><flow id="flow_car_149" type="car" begin="25200" end="28800" vehsPerHour="143" route="route_148" /><flow id="flow_bus_150" type="bus" begin="25200" end="28800" vehsPerHour="14" route="route_148" /><flow id="flow_truck_151" type="truck" begin="25200" end="28800" vehsPerHour="7" route="route_148" /><route id="route_152" edges="326849846#0 326849846#1 1267653586#2" /><flow id="flow_motorcycle_152" type="motorcycle" begin="25200" end="28800" vehsPerHour="681" route="route_152" /><flow id="flow_car_153" type="car" begin="25200" end="28800" vehsPerHour="136" route="route_152" /><flow id="flow_bus_154" type="bus" begin="25200" end="28800" vehsPerHour="13" route="route_152" /><flow id="flow_truck_155" type="truck" begin="25200" end="28800" vehsPerHour="6" route="route_152" /><route id="route_156" edges="326849846#0 326849846#1 1056903939 747226805#0 747226805#1" /><flow id="flow_motorcycle_156" type="motorcycle" begin="25200" end="28800" vehsPerHour="781" route="route_156" /><flow id="flow_car_157" type="car" begin="25200" end="28800" vehsPerHour="156" route="route_156" /><flow id="flow_bus_158" type="bus" begin="25200" end="28800" vehsPerHour="15" route="route_156" /><flow id="flow_truck_159" type="truck" begin="25200" end="28800" vehsPerHour="7" route="route_156" /><route id="route_160" edges="326849845 1162554504 971692799 35113306 35113196 747226804" /><flow id="flow_motorcycle_160" type="motorcycle" begin="25200" end="28800" vehsPerHour="717" route="route_160" /><flow id="flow_car_161" type="car" begin="25200" end="28800" vehsPerHour="143" route="route_160" /><flow id="flow_bus_162" type="bus" begin="25200" end="28800" vehsPerHour="14" route="route_160" /><flow id="flow_truck_163" type="truck" begin="25200" end="28800" vehsPerHour="7" route="route_160" /><route id="route_164" edges="326849845 408845370 673254417#0 673254417#1 306641038 1345417677 1345417678" /><flow id="flow_motorcycle_164" type="motorcycle" begin="25200" end="28800" vehsPerHour="708" route="route_164" /><flow id="flow_car_165" type="car" begin="25200" end="28800" vehsPerHour="141" route="route_164" /><flow id="flow_bus_166" type="bus" begin="25200" end="28800" vehsPerHour="14" route="route_164" /><flow id="flow_truck_167" type="truck" begin="25200" end="28800" vehsPerHour="7" route="route_164" /><route id="route_168" edges="747226800 326849845 408845370" /><flow id="flow_motorcycle_168" type="motorcycle" begin="25200" end="28800" vehsPerHour="650" route="route_168" /><flow id="flow_car_169" type="car" begin="25200" end="28800" vehsPerHour="130" route="route_168" /><flow id="flow_bus_170" type="bus" begin="25200" end="28800" vehsPerHour="13" route="route_168" /><flow id="flow_truck_171" type="truck" begin="25200" end="28800" vehsPerHour="6" route="route_168" /><route id="route_172" edges="747226800 326849845" /><flow id="flow_motorcycle_172" type="motorcycle" begin="25200" end="28800" vehsPerHour="675" route="route_172" /><flow id="flow_car_173" type="car" begin="25200" end="28800" vehsPerHour="135" route="route_172" /><flow id="flow_bus_174" type="bus" begin="25200" end="28800" vehsPerHour="13" route="route_172" /><flow id="flow_truck_175" type="truck" begin="25200" end="28800" vehsPerHour="6" route="route_172" /><route id="route_176" edges="747226800" /><flow id="flow_motorcycle_176" type="motorcycle" begin="25200" end="28800" vehsPerHour="655" route="route_176" /><flow id="flow_car_177" type="car" begin="25200" end="28800" vehsPerHour="131" route="route_176" /><flow id="flow_bus_178" type="bus" begin="25200" end="28800" vehsPerHour="13" route="route_176" /><flow id="flow_truck_179" type="truck" begin="25200" end="28800" vehsPerHour="6" route="route_176" /><route id="route_180" edges="747226800 326849846#0 928038825#1" /><flow id="flow_motorcycle_180" type="motorcycle" begin="25200" end="28800" vehsPerHour="619" route="route_180" /><flow id="flow_car_181" type="car" begin="25200" end="28800" vehsPerHour="123" route="route_180" /><flow id="flow_bus_182" type="bus" begin="25200" end="28800" vehsPerHour="12" route="route_180" /><flow id="flow_truck_183" type="truck" begin="25200" end="28800" vehsPerHour="6" route="route_180" /><route id="route_184" edges="747226800 326849846#0" /><flow id="flow_motorcycle_184" type="motorcycle" begin="25200" end="28800" vehsPerHour="639" route="route_184" /><flow id="flow_car_185" type="car" begin="25200" end="28800" vehsPerHour="127" route="route_184" /><flow id="flow_bus_186" type="bus" begin="25200" end="28800" vehsPerHour="12" route="route_184" /><flow id="flow_truck_187" type="truck" begin="25200" end="28800" vehsPerHour="6" route="route_184" /><route id="route_188" edges="747226800 326849845 1162554504 971692799 35113306" /><flow id="flow_motorcycle_188" type="motorcycle" begin="25200" end="28800" vehsPerHour="686" route="route_188" /><flow id="flow_car_189" type="car" begin="25200" end="28800" vehsPerHour="137" route="route_188" /><flow id="flow_bus_190" type="bus" begin="25200" end="28800" vehsPerHour="13" route="route_188" /><flow id="flow_truck_191" type="truck" begin="25200" end="28800" vehsPerHour="6" route="route_188" /><route id="route_192" edges="747226800 326849845 408845370 673254417#0" /><flow id="flow_motorcycle_192" type="motorcycle" begin="25200" end="28800" vehsPerHour="612" route="route_192" /><flow id="flow_car_193" type="car" begin="25200" end="28800" vehsPerHour="122" route="route_192" /><flow id="flow_bus_194" type="bus" begin="25200" end="28800" vehsPerHour="12" route="route_192" /><flow id="flow_truck_195" type="truck" begin="25200" end="28800" vehsPerHour="6" route="route_192" /><route id="route_196" edges="747226800 326849845 408845370 673254417#0 673254417#1" /><flow id="flow_motorcycle_196" type="motorcycle" begin="25200" end="28800" vehsPerHour="608" route="route_196" /><flow id="flow_car_197" type="car" begin="25200" end="28800" vehsPerHour="121" route="route_196" /><flow id="flow_bus_198" type="bus" begin="25200" end="28800" vehsPerHour="12" route="route_196" /><flow id="flow_truck_199" type="truck" begin="25200" end="28800" vehsPerHour="6" route="route_196" /><route id="route_200" edges="747226800 326849845 1162554504 971692799 35113306 35113196" /><flow id="flow_motorcycle_200" type="motorcycle" begin="25200" end="28800" vehsPerHour="681" route="route_200" /><flow id="flow_car_201" type="car" begin="25200" end="28800" vehsPerHour="136" route="route_200" /><flow id="flow_bus_202" type="bus" begin="25200" end="28800" vehsPerHour="13" route="route_200" /><flow id="flow_truck_203" type="truck" begin="25200" end="28800" vehsPerHour="6" route="route_200" /><route id="route_204" edges="747226800 326849846#0 326849846#1" /><flow id="flow_motorcycle_204" type="motorcycle" begin="25200" end="28800" vehsPerHour="683" route="route_204" /><flow id="flow_car_205" type="car" begin="25200" end="28800" vehsPerHour="136" route="route_204" /><flow id="flow_bus_206" type="bus" begin="25200" end="28800" vehsPerHour="13" route="route_204" /><flow id="flow_truck_207" type="truck" begin="25200" end="28800" vehsPerHour="6" route="route_204" /><route id="route_208" edges="747226800 326849846#0 326849846#1 1267653586#2" /><flow id="flow_motorcycle_208" type="motorcycle" begin="25200" end="28800" vehsPerHour="666" route="route_208" /><flow id="flow_car_209" type="car" begin="25200" end="28800" vehsPerHour="133" route="route_208" /><flow id="flow_bus_210" type="bus" begin="25200" end="28800" vehsPerHour="13" route="route_208" /><flow id="flow_truck_211" type="truck" begin="25200" end="28800" vehsPerHour="6" route="route_208" /><route id="route_212" edges="747226800 326849846#0 326849846#1 1056903939 747226805#0 747226805#1" /><flow id="flow_motorcycle_212" type="motorcycle" begin="25200" end="28800" vehsPerHour="750" route="route_212" /><flow id="flow_car_213" type="car" begin="25200" end="28800" vehsPerHour="150" route="route_212" /><flow id="flow_bus_214" type="bus" begin="25200" end="28800" vehsPerHour="15" route="route_212" /><flow id="flow_truck_215" type="truck" begin="25200" end="28800" vehsPerHour="7" route="route_212" /><route id="route_216" edges="747226800 326849845 1162554504 971692799 35113306 35113196 747226804" /><flow id="flow_motorcycle_216" type="motorcycle" begin="25200" end="28800" vehsPerHour="701" route="route_216" /><flow id="flow_car_217" type="car" begin="25200" end="28800" vehsPerHour="140" route="route_216" /><flow id="flow_bus_218" type="bus" begin="25200" end="28800" vehsPerHour="14" route="route_216" /><flow id="flow_truck_219" type="truck" begin="25200" end="28800" vehsPerHour="7" route="route_216" /><route id="route_220" edges="747226800 326849845 408845370 673254417#0 673254417#1 306641038 1345417677 1345417678" /><flow id="flow_motorcycle_220" type="motorcycle" begin="25200" end="28800" vehsPerHour="695" route="route_220" /><flow id="flow_car_221" type="car" begin="25200" end="28800" vehsPerHour="139" route="route_220" /><flow id="flow_bus_222" type="bus" begin="25200" end="28800" vehsPerHour="13" route="route_220" /><flow id="flow_truck_223" type="truck" begin="25200" end="28800" vehsPerHour="6" route="route_220" /><route id="route_224" edges="749986989 747226800 326849845 408845370" /><flow id="flow_motorcycle_224" type="motorcycle" begin="25200" end="28800" vehsPerHour="591" route="route_224" /><flow id="flow_car_225" type="car" begin="25200" end="28800" vehsPerHour="118" route="route_224" /><flow id="flow_bus_226" type="bus" begin="25200" end="28800" vehsPerHour="11" route="route_224" /><flow id="flow_truck_227" type="truck" begin="25200" end="28800" vehsPerHour="5" route="route_224" /><route id="route_228" edges="749986989 747226800 326849845" /><flow id="flow_motorcycle_228" type="motorcycle" begin="25200" end="28800" vehsPerHour="584" route="route_228" /><flow id="flow_car_229" type="car" begin="25200" end="28800" vehsPerHour="116" route="route_228" /><flow id="flow_bus_230" type="bus" begin="25200" end="28800" vehsPerHour="11" route="route_228" /><flow id="flow_truck_231" type="truck" begin="25200" end="28800" vehsPerHour="5" route="route_228" /><route id="route_232" edges="749986989 747226800" /><flow id="flow_motorcycle_232" type="motorcycle" begin="25200" end="28800" vehsPerHour="534" route="route_232" /><flow id="flow_car_233" type="car" begin="25200" end="28800" vehsPerHour="106" route="route_232" /><flow id="flow_bus_234" type="bus" begin="25200" end="28800" vehsPerHour="10" route="route_232" /><flow id="flow_truck_235" type="truck" begin="25200" end="28800" vehsPerHour="5" route="route_232" /><route id="route_236" edges="749986989" /><flow id="flow_motorcycle_236" type="motorcycle" begin="25200" end="28800" vehsPerHour="497" route="route_236" /><flow id="flow_car_237" type="car" begin="25200" end="28800" vehsPerHour="99" route="route_236" /><flow id="flow_bus_238" type="bus" begin="25200" end="28800" vehsPerHour="9" route="route_236" /><flow id="flow_truck_239" type="truck" begin="25200" end="28800" vehsPerHour="4" route="route_236" /><rout